*SOIL-PLANT-ATMOSPHERE MODULE OUTPUT FILE

*DSSAT Cropping System Model Ver. 4.8.5.000 -release  MAR 01, 2026 09:34:20

*RUN   1        : 1                         WHAPS048 TUDU1501    1
 MODEL          : WHAPS048 - Wheat
 EXPERIMENT     : TUDU1501 WH
 DATA PATH      :
 TREATMENT  1   : 1                         WHAPS048
  
!                                                                                                                                                                                        Soil evaporation (mm/d) by soil depth (cm):
!                                                                                                                                                                                        0-5    5-15   15-20   20-30   30-40   40-50   50-60   60-70   70-90  90-210
@YEAR DOY   DAS   SRAA  TMAXA  TMINA    REFA    EOAA    EOPA    EOSA    ETAA    EPAA    ESAA    EFAA    EMAA    EOAC    ETAC    EPAC    ESAC    EFAC    EMAC    KCAA    KBSA    KEAA    ES1D    ES2D    ES3D    ES4D    ES5D    ES6D    ES7D    ES8D    ES9D  ES10D   TRWUD   TWUPD
   15 077     1  16.00  14.60   0.70 -99.000   3.096   0.000   3.096   1.022   0.000   1.022   0.000   0.000    3.10    1.02    0.00    1.02    0.00    0.00 -99.000 -99.000 -99.000   0.841   0.108   0.018   0.019   0.010   0.006   0.004   0.003   0.004   0.008   0.000   0.000
   15 078     2  17.30  13.60  -1.00 -99.000   3.234   0.000   3.234   1.092   0.000   1.092   0.000   0.000    6.33    2.11    0.00    2.11    0.00    0.00 -99.000 -99.000 -99.000   0.902   0.116   0.019   0.019   0.010   0.006   0.004   0.003   0.004   0.008   0.000   0.000
   15 079     3  17.60  13.30  -2.60 -99.000   3.204   0.000   3.204   0.998   0.000   0.998   0.000   0.000    9.53    3.11    0.00    3.11    0.00    0.00 -99.000 -99.000 -99.000   0.808   0.115   0.019   0.019   0.010   0.006   0.004   0.003   0.004   0.008   0.000   0.000
   15 080     4  13.10  14.00  -3.40 -99.000   2.383   0.000   2.383   1.052   0.000   1.052   0.000   0.000   11.92    4.16    0.00    4.16    0.00    0.00 -99.000 -99.000 -99.000   0.863   0.115   0.019   0.019   0.010   0.006   0.004   0.003   0.004   0.008   0.000   0.000
   15 081     5   5.50   5.70   2.60 -99.000   0.936   0.000   0.936   0.936   0.000   0.936   0.000   0.000   12.85    5.10    0.00    5.10    0.00    0.00 -99.000 -99.000 -99.000   0.781   0.094   0.015   0.016   0.008   0.005   0.004   0.003   0.003   0.007   0.000   0.000
   15 082     6   7.00   6.30  -0.80 -99.000   1.156   0.000   1.156   1.095   0.000   1.095   0.000   0.000   14.01    6.19    0.00    6.19    0.00    0.00 -99.000 -99.000 -99.000   0.907   0.114   0.019   0.019   0.010   0.006   0.004   0.003   0.004   0.008   0.000   0.000
   15 083     7  15.70  15.20  -2.00 -99.000   2.969   0.000   2.969   1.000   0.000   1.000   0.000   0.000   16.98    7.19    0.00    7.19    0.00    0.00 -99.000 -99.000 -99.000   0.813   0.113   0.019   0.019   0.010   0.006   0.004   0.003   0.004   0.008   0.000   0.000
   15 084     8  14.20  15.20   2.70 -99.000   2.810   0.000   2.810   0.916   0.000   0.916   0.000   0.000   19.79    8.11    0.00    8.11    0.00    0.00 -99.000 -99.000 -99.000   0.729   0.113   0.019   0.019   0.010   0.006   0.004   0.003   0.004   0.008   0.000   0.000
   15 085     9   3.50   7.70   4.90 -99.000   0.627   0.000   0.627   0.627   0.000   0.627   0.000   0.000   20.42    8.74    0.00    8.74    0.00    0.00 -99.000 -99.000 -99.000   0.494   0.080   0.013   0.014   0.007   0.004   0.003   0.002   0.003   0.006   0.000   0.000
   15 086    10  10.20   9.10   3.80 -99.000   1.848   0.000   1.848   0.921   0.000   0.921   0.000   0.000   22.26    9.66    0.00    9.66    0.00    0.00 -99.000 -99.000 -99.000   0.736   0.111   0.019   0.019   0.010   0.006   0.004   0.003   0.004   0.008   0.000   0.000
   15 087    11  17.20  11.80   1.00 -99.000   3.167   0.000   3.167   0.909   0.000   0.909   0.000   0.000   25.43   10.57    0.00   10.57    0.00    0.00 -99.000 -99.000 -99.000   0.725   0.110   0.019   0.019   0.010   0.006   0.004   0.003   0.004   0.008   0.000   0.000
   15 088    12   6.30  12.50   6.50 -99.000   1.240   0.000   1.240   0.885   0.000   0.885   0.000   0.000   26.67   11.45    0.00   11.45    0.00    0.00 -99.000 -99.000 -99.000   0.701   0.110   0.019   0.019   0.010   0.006   0.004   0.003   0.004   0.008   0.000   0.000
   15 089    13   9.40   9.50   3.80 -99.000   1.711   0.021   1.690   1.175   0.021   1.154   0.000   0.000   28.38   12.63    0.02   12.61    0.00    0.00 -99.000 -99.000 -99.000   0.965   0.116   0.018   0.019   0.010   0.006   0.004   0.003   0.004   0.008   0.002   0.007
   15 090    14   8.20  13.90   1.60 -99.000   1.597   0.022   1.574   1.581   0.006   1.574   0.000   0.000   29.98   14.21    0.03   14.18    0.00    0.00 -99.000 -99.000 -99.000   0.347   0.226   0.071   0.111   0.092   0.077   0.070   0.062   0.107   0.413   0.001   0.007
   15 091    15  13.40   6.50   0.20 -99.000   2.274   0.036   2.237   2.255   0.017   2.237   0.000   0.000   32.25   16.46    0.04   16.42    0.00    0.00 -99.000 -99.000 -99.000   0.510   0.331   0.107   0.155   0.127   0.106   0.096   0.086   0.148   0.571   0.002   0.007
   15 092    16   7.30   6.00   0.20 -99.000   1.229   0.022   1.207   1.214   0.007   1.207   0.000   0.000   33.48   17.68    0.05   17.62    0.00    0.00 -99.000 -99.000 -99.000   0.280   0.182   0.062   0.085   0.067   0.056   0.051   0.045   0.078   0.302   0.001   0.007
   15 093    17  20.70   9.70  -1.40 -99.000   3.664   0.070   3.594   3.599   0.004   3.594   0.000   0.000   37.14   21.27    0.06   21.22    0.00    0.00 -99.000 -99.000 -99.000   0.753   0.538   0.186   0.275   0.214   0.173   0.155   0.138   0.239   0.923   0.000   0.007
   15 094    18   7.40   5.30   1.90 -99.000   1.245   0.028   1.217   1.241   0.025   1.217   0.000   0.000   38.39   22.52    0.08   22.44    0.00    0.00 -99.000 -99.000 -99.000   0.258   0.180   0.063   0.095   0.076   0.059   0.052   0.046   0.080   0.309   0.002   0.007
   15 095    19  13.90   6.90  -2.00 -99.000   2.311   0.057   2.254   2.258   0.003   2.254   0.000   0.000   40.70   24.77    0.08   24.69    0.00    0.00 -99.000 -99.000 -99.000   0.456   0.333   0.115   0.179   0.142   0.115   0.098   0.086   0.150   0.580   0.000   0.007
   15 096    20  10.30   6.20  -2.40 -99.000   1.668   0.044   1.624   1.639   0.014   1.624   0.000   0.000   42.37   26.41    0.10   26.31    0.00    0.00 -99.000 -99.000 -99.000   0.311   0.240   0.084   0.131   0.104   0.088   0.072   0.063   0.109   0.423   0.001   0.007
   15 097    21  20.90   8.70  -2.90 -99.000   3.513   0.096   3.417   3.428   0.011   3.417   0.000   0.000   45.88   29.84    0.11   29.73    0.00    0.00 -99.000 -99.000 -99.000   0.632   0.506   0.175   0.278   0.222   0.187   0.153   0.133   0.232   0.899   0.001   0.007
   15 098    22  19.80  13.40  -0.20 -99.000   3.707   0.111   3.596   1.139   0.031   1.108   0.000   0.000   49.59   30.98    0.14   30.84    0.00    0.00 -99.000 -99.000 -99.000   0.905   0.124   0.021   0.021   0.011   0.007   0.004   0.003   0.004   0.008   0.003   0.007
   15 099    23  20.00  18.00   2.40 -99.000   4.109   0.151   3.958   1.082   0.065   1.016   0.000   0.000   53.70   32.06    0.21   31.85    0.00    0.00 -99.000 -99.000 -99.000   0.815   0.123   0.021   0.021   0.011   0.007   0.004   0.003   0.004   0.008   0.007   0.007
   15 100    24  20.60  21.00   1.70 -99.000   4.367   0.201   4.166   1.064   0.132   0.932   0.000   0.000   58.06   33.12    0.34   32.79    0.00    0.00 -99.000 -99.000 -99.000   0.731   0.122   0.021   0.021   0.011   0.007   0.004   0.003   0.004   0.008   0.013   0.007
   15 101    25  13.40  18.10   5.30 -99.000   2.805   0.163   2.643   1.086   0.234   0.852   0.000   0.000   60.87   34.21    0.57   33.64    0.00    0.00 -99.000 -99.000 -99.000   0.653   0.121   0.021   0.021   0.011   0.007   0.004   0.003   0.004   0.008   0.023   0.007
   15 102    26  15.40  18.90   5.70 -99.000   3.257   0.225   3.032   0.922   0.146   0.776   0.000   0.000   64.13   35.13    0.72   34.41    0.00    0.00 -99.000 -99.000 -99.000   0.578   0.119   0.021   0.021   0.011   0.007   0.004   0.003   0.004   0.008   0.015   0.004
   15 103    27  15.80  18.40   5.30 -99.000   3.289   0.274   3.016   0.917   0.205   0.712   0.000   0.000   67.41   36.05    0.92   35.13    0.00    0.00 -99.000 -99.000 -99.000   0.516   0.118   0.021   0.021   0.011   0.007   0.004   0.003   0.004   0.008   0.021   0.002
   15 104    28  20.40  18.80   5.40 -99.000   4.253   0.425   3.829   0.895   0.242   0.653   0.000   0.000   71.67   36.94    1.16   35.78    0.00    0.00 -99.000 -99.000 -99.000   0.459   0.117   0.021   0.021   0.011   0.007   0.004   0.003   0.004   0.008   0.024   0.002
   15 105    29  23.10  23.30   5.50 -99.000   5.098   0.627   4.472   0.957   0.356   0.601   0.000   0.000   76.77   37.90    1.52   36.38    0.00    0.00 -99.000 -99.000 -99.000   0.408   0.115   0.020   0.021   0.011   0.007   0.004   0.003   0.004   0.008   0.036   0.002
   15 106    30  14.80  21.80   9.60 -99.000   3.301   0.486   2.816   1.256   0.697   0.559   0.000   0.000   80.07   39.16    2.22   36.94    0.00    0.00 -99.000 -99.000 -99.000   0.368   0.112   0.020   0.021   0.011   0.007   0.004   0.003   0.004   0.008   0.070   0.002
   15 107    31   8.40  16.40   5.30 -99.000   1.664   0.278   1.387   1.756   0.369   1.387   0.000   0.000   81.73   40.91    2.59   38.33    0.00    0.00 -99.000 -99.000 -99.000   0.227   0.217   0.078   0.115   0.091   0.077   0.063   0.055   0.095   0.369   0.037   0.003
   15 108    32  18.30  10.10   0.90 -99.000   3.243   0.583   2.662   2.828   0.167   2.662   0.000   0.000   84.97   43.74    2.75   40.99    0.00    0.00 -99.000 -99.000 -99.000   0.548   0.409   0.140   0.208   0.165   0.139   0.117   0.103   0.173   0.660   0.017   0.008
   15 109    33  24.60  12.90  -0.10 -99.000   4.469   0.850   3.621   3.828   0.207   3.621   0.000   0.000   89.44   47.57    2.96   44.61    0.00    0.00 -99.000 -99.000 -99.000   0.686   0.540   0.186   0.289   0.230   0.194   0.171   0.152   0.250   0.924   0.021   0.009
   15 110    34  24.50  16.50  -0.20 -99.000   4.672   0.963   3.711   4.155   0.444   3.711   0.000   0.000   94.12   51.73    3.40   48.32    0.00    0.00 -99.000 -99.000 -99.000   0.665   0.547   0.189   0.299   0.240   0.203   0.178   0.159   0.266   0.966   0.044   0.009
   15 111    35  25.00  19.70   1.60 -99.000   5.054   1.161   3.895   1.806   0.774   1.031   0.000   0.000   99.17   53.53    4.18   49.35    0.00    0.00 -99.000 -99.000 -99.000   0.832   0.120   0.020   0.021   0.011   0.007   0.005   0.003   0.004   0.008   0.077   0.009
   15 112    36  24.40  19.80   2.60 -99.000   4.940   1.291   3.651   2.093   1.178   0.915   0.000   0.000  104.11   55.62    5.36   50.27    0.00    0.00 -99.000 -99.000 -99.000   0.718   0.118   0.020   0.021   0.011   0.007   0.005   0.003   0.004   0.008   0.118   0.010
   15 113    37  15.80  12.20   0.00 -99.000   2.746   0.808   1.939   2.097   1.297   0.799   0.000   0.000  106.86   57.72    6.65   51.07    0.00    0.00 -99.000 -99.000 -99.000   0.607   0.114   0.020   0.021   0.011   0.007   0.005   0.003   0.004   0.008   0.130   0.010
   15 114    38  24.00  18.20  -0.70 -99.000   4.529   1.389   3.143   1.171   0.468   0.702   0.000   0.000  111.39   58.89    7.12   51.77    0.00    0.00 -99.000 -99.000 -99.000   0.515   0.110   0.020   0.020   0.011   0.007   0.005   0.003   0.004   0.008   0.047   0.007
   15 115    39  12.80  19.70   3.10 -99.000   2.548   0.847   1.702   2.111   1.396   0.714   0.000   0.000  113.93   61.00    8.52   52.48    0.00    0.00 -99.000 -99.000 -99.000   0.529   0.108   0.020   0.020   0.011   0.007   0.005   0.003   0.004   0.008   0.140   0.006
   15 116    40  19.20  20.00  10.10 -99.000   4.080   1.488   2.593   1.858   1.075   0.782   0.000   0.000  118.01   62.86    9.59   53.26    0.00    0.00 -99.000 -99.000 -99.000   0.603   0.103   0.019   0.020   0.011   0.007   0.005   0.003   0.004   0.008   0.108   0.008
   15 117    41  21.10  22.80   6.30 -99.000   4.476   1.820   2.658   2.116   1.114   1.002   0.000   0.000  122.49   64.97   10.71   54.27    0.00    0.00 -99.000 -99.000 -99.000   0.824   0.102   0.019   0.020   0.011   0.007   0.005   0.003   0.004   0.008   0.111   0.012
   15 118    42   8.40  12.10   4.50 -99.000   1.504   0.670   0.835   3.016   2.181   0.835   0.000   0.000  123.99   67.99   12.89   55.10    0.00    0.00 -99.000 -99.000 -99.000   0.180   0.109   0.037   0.062   0.053   0.045   0.039   0.035   0.059   0.215   0.218   0.016
   15 119    43  22.40  13.10   0.80 -99.000   3.925   1.825   2.104   2.460   0.356   2.104   0.000   0.000  127.92   70.45   13.25   57.21    0.00    0.00 -99.000 -99.000 -99.000   0.433   0.294   0.092   0.156   0.132   0.114   0.100   0.089   0.149   0.544   0.036   0.018
   15 120    44  16.60  15.40   5.30 -99.000   3.136   1.501   1.638   2.671   1.033   1.638   0.000   0.000  131.05   73.12   14.28   58.84    0.00    0.00 -99.000 -99.000 -99.000   0.327   0.238   0.071   0.121   0.103   0.089   0.078   0.070   0.117   0.425   0.103   0.018
   15 121    45   8.10   9.60   7.70 -99.000   1.426   0.720   0.708   1.685   0.978   0.708   0.000   0.000  132.48   74.81   15.26   59.55    0.00    0.00 -99.000 -99.000 -99.000   0.148   0.113   0.036   0.055   0.043   0.036   0.031   0.028   0.047   0.170   0.098   0.019
   15 122    46  12.30  13.60   7.40 -99.000   2.304   1.207   1.099   1.194   0.095   1.099   0.000   0.000  134.79   76.00   15.35   60.65    0.00    0.00 -99.000 -99.000 -99.000   0.229   0.174   0.065   0.093   0.069   0.056   0.048   0.042   0.069   0.253   0.009   0.020
   15 123    47   9.10  16.30  10.20 -99.000   1.808   0.992   0.817   1.350   0.533   0.817   0.000   0.000  136.59   77.35   15.88   61.47    0.00    0.00 -99.000 -99.000 -99.000   0.174   0.131   0.047   0.069   0.053   0.043   0.036   0.031   0.051   0.183   0.053   0.021
   15 124    48  16.10  20.70  14.20 -99.000   3.503   2.029   1.477   2.047   0.570   1.477   0.000   0.000  140.10   79.40   16.45   62.94    0.00    0.00 -99.000 -99.000 -99.000   0.295   0.227   0.078   0.121   0.095   0.078   0.068   0.059   0.098   0.357   0.057   0.023
   15 125    49  12.10  25.90  12.90 -99.000   2.747   1.690   1.059   2.252   1.193   1.059   0.000   0.000  142.84   81.65   17.65   64.00    0.00    0.00 -99.000 -99.000 -99.000   0.213   0.157   0.056   0.085   0.067   0.056   0.048   0.042   0.071   0.262   0.119   0.024
   15 126    50  14.40  14.60   8.50 -99.000   2.692   1.752   0.943   3.214   2.272   0.943   0.000   0.000  145.54   84.86   19.92   64.95    0.00    0.00 -99.000 -99.000 -99.000   0.197   0.145   0.051   0.078   0.061   0.049   0.042   0.037   0.061   0.222   0.227   0.026
   15 127    51  22.10  18.00   8.00 -99.000   4.308   2.882   1.430   2.225   0.795   1.430   0.000   0.000  149.84   87.09   20.71   66.38    0.00    0.00 -99.000 -99.000 -99.000   0.275   0.216   0.074   0.118   0.092   0.076   0.065   0.057   0.096   0.361   0.079   0.027
   15 128    52  23.90  22.20   8.80 -99.000   4.934   3.394   1.545   3.561   2.017   1.545   0.000   0.000  154.78   90.65   22.73   67.92    0.00    0.00 -99.000 -99.000 -99.000   0.281   0.224   0.077   0.124   0.098   0.082   0.071   0.063   0.108   0.417   0.202   0.028
   15 129    53  13.50  17.60  10.80 -99.000   2.653   1.881   0.775   4.220   3.446   0.775   0.000   0.000  157.43   94.87   26.18   68.70    0.00    0.00 -99.000 -99.000 -99.000   0.147   0.110   0.038   0.061   0.048   0.041   0.036   0.032   0.054   0.209   0.345   0.030
   15 130    54  22.10  19.00   7.40 -99.000   4.286   3.115   1.176   2.318   1.143   1.176   0.000   0.000  161.72   97.19   27.32   69.87    0.00    0.00 -99.000 -99.000 -99.000   0.220   0.163   0.057   0.091   0.073   0.062   0.055   0.048   0.083   0.323   0.114   0.031
   15 131    55  23.50  21.80   5.60 -99.000   4.639   3.442   1.201   3.812   2.611   1.201   0.000   0.000  166.35  101.00   29.93   71.07    0.00    0.00 -99.000 -99.000 -99.000   0.216   0.167   0.058   0.093   0.075   0.064   0.057   0.050   0.086   0.336   0.261   0.033
   15 132    56  23.50  27.50   8.40 -99.000   5.095   3.856   1.243   5.325   4.082   1.243   0.000   0.000  171.45  106.33   34.01   72.32    0.00    0.00 -99.000 -99.000 -99.000   0.210   0.171   0.060   0.096   0.078   0.067   0.060   0.053   0.092   0.356   0.408   0.035
   15 133    57  20.50  22.10  13.40 -99.000   4.313   3.343   0.974   6.916   5.942   0.974   0.000   0.000  175.76  113.24   39.95   73.29    0.00    0.00 -99.000 -99.000 -99.000   0.181   0.132   0.045   0.072   0.059   0.051   0.046   0.041   0.071   0.276   0.594   0.036
   15 134    58  18.00  18.60  11.40 -99.000   3.548   2.853   0.699   2.894   2.195   0.699   0.000   0.000  179.31  116.14   42.15   73.99    0.00    0.00 -99.000 -99.000 -99.000   0.140   0.094   0.030   0.049   0.040   0.035   0.032   0.029   0.051   0.197   0.220   0.038
   15 135    59   8.20  15.20   7.70 -99.000   1.483   1.221   0.264   1.588   1.324   0.264   0.000   0.000  180.79  117.72   43.47   74.25    0.00    0.00 -99.000 -99.000 -99.000   0.051   0.036   0.011   0.018   0.015   0.013   0.012   0.011   0.019   0.076   0.132   0.039
   15 136    60  24.30  19.80   5.70 -99.000   4.596   3.825   0.776   1.340   0.564   0.776   0.000   0.000  185.39  119.06   44.04   75.03    0.00    0.00 -99.000 -99.000 -99.000   0.146   0.108   0.033   0.054   0.044   0.039   0.037   0.034   0.058   0.225   0.056   0.040
   15 137    61  17.40  17.80  10.50 -99.000   3.335   2.830   0.509   2.856   2.347   0.509   0.000   0.000  188.72  121.92   46.38   75.54    0.00    0.00 -99.000 -99.000 -99.000   0.096   0.071   0.021   0.035   0.029   0.026   0.024   0.022   0.038   0.147   0.235   0.041
   15 138    62  26.90  23.50   7.30 -99.000   5.398   4.635   0.769   1.679   0.910   0.769   0.000   0.000  194.12  123.60   47.29   76.31    0.00    0.00 -99.000 -99.000 -99.000   0.640   0.080   0.012   0.012   0.007   0.004   0.003   0.002   0.003   0.006   0.091   0.042
   15 139    63  10.60  18.00   9.90 -99.000   2.018   1.756   0.264   2.993   2.729   0.264   0.000   0.000  196.14  126.59   50.02   76.57    0.00    0.00 -99.000 -99.000 -99.000   0.055   0.039   0.012   0.018   0.014   0.012   0.012   0.011   0.019   0.073   0.273   0.042
   15 140    64   8.10  10.00   6.70 -99.000   1.329   1.164   0.167   0.773   0.605   0.167   0.000   0.000  197.47  127.36   50.63   76.74    0.00    0.00 -99.000 -99.000 -99.000   0.038   0.027   0.009   0.012   0.009   0.007   0.007   0.006   0.011   0.042   0.061   0.043
   15 141    65  12.00  12.50   7.00 -99.000   2.053   1.805   0.252   0.370   0.118   0.252   0.000   0.000  199.52  127.73   50.74   76.99    0.00    0.00 -99.000 -99.000 -99.000   0.052   0.039   0.015   0.021   0.015   0.011   0.010   0.009   0.016   0.063   0.012   0.043
   15 142    66  22.00  15.40   4.30 -99.000   3.822   3.376   0.451   0.758   0.307   0.451   0.000   0.000  203.35  128.49   51.05   77.44    0.00    0.00 -99.000 -99.000 -99.000   0.087   0.067   0.024   0.037   0.028   0.023   0.019   0.018   0.031   0.119   0.031   0.043
   15 143    67  15.70  16.60   6.80 -99.000   2.840   2.527   0.317   1.279   0.962   0.317   0.000   0.000  206.18  129.77   52.01   77.76    0.00    0.00 -99.000 -99.000 -99.000   0.063   0.046   0.017   0.025   0.020   0.016   0.014   0.012   0.021   0.083   0.096   0.043
   15 144    68  12.70  15.70   8.60 -99.000   2.306   2.063   0.247   0.991   0.744   0.247   0.000   0.000  208.49  130.76   52.76   78.00    0.00    0.00 -99.000 -99.000 -99.000   0.049   0.035   0.013   0.019   0.015   0.013   0.011   0.010   0.017   0.064   0.074   0.044
   15 145    69  15.80  19.20   9.90 -99.000   3.047   2.731   0.320   0.784   0.464   0.320   0.000   0.000  211.54  131.55   53.22   78.32    0.00    0.00 -99.000 -99.000 -99.000   0.062   0.045   0.017   0.025   0.020   0.017   0.015   0.013   0.022   0.084   0.046   0.044
   15 146    70  13.10  15.10   8.10 -99.000   2.344   2.107   0.240   1.076   0.837   0.240   0.000   0.000  213.88  132.62   54.06   78.56    0.00    0.00 -99.000 -99.000 -99.000   0.044   0.034   0.012   0.019   0.015   0.013   0.011   0.010   0.017   0.065   0.084   0.044
   15 147    71  17.30  14.00   4.50 -99.000   2.936   2.645   0.295   0.725   0.430   0.295   0.000   0.000  216.82  133.35   54.49   78.86    0.00    0.00 -99.000 -99.000 -99.000   0.053   0.041   0.015   0.023   0.018   0.016   0.014   0.012   0.021   0.082   0.043   0.045
   15 148    72  27.80  20.30   3.50 -99.000   5.122   4.627   0.502   1.066   0.564   0.502   0.000   0.000  221.94  134.41   55.05   79.36    0.00    0.00 -99.000 -99.000 -99.000   0.090   0.070   0.024   0.039   0.031   0.027   0.024   0.021   0.036   0.140   0.056   0.045
   15 149    73  21.70  23.40   7.80 -99.000   4.331   3.930   0.407   2.141   1.735   0.407   0.000   0.000  226.27  136.55   56.79   79.77    0.00    0.00 -99.000 -99.000 -99.000   0.072   0.057   0.020   0.032   0.026   0.022   0.019   0.017   0.029   0.114   0.173   0.045
   15 150    74  17.20  18.40  11.50 -99.000   3.318   3.020   0.302   1.903   1.601   0.302   0.000   0.000  229.59  138.46   58.39   80.07    0.00    0.00 -99.000 -99.000 -99.000   0.052   0.042   0.015   0.024   0.019   0.016   0.014   0.013   0.022   0.085   0.160   0.046
   15 151    75  22.00  21.20   9.60 -99.000   4.329   3.950   0.385   0.951   0.566   0.385   0.000   0.000  233.92  139.41   58.95   80.45    0.00    0.00 -99.000 -99.000 -99.000   0.065   0.053   0.019   0.030   0.024   0.021   0.018   0.016   0.028   0.110   0.057   0.046
   15 152    76  21.50  26.10  11.90 -99.000   4.587   4.197   0.395   1.569   1.174   0.395   0.000   0.000  238.51  140.98   60.13   80.85    0.00    0.00 -99.000 -99.000 -99.000   0.067   0.054   0.019   0.031   0.025   0.021   0.019   0.017   0.029   0.114   0.117   0.046
   15 153    77  23.00  25.70  13.80 -99.000   4.957   4.547   0.415   2.100   1.684   0.415   0.000   0.000  243.46  143.08   61.81   81.26    0.00    0.00 -99.000 -99.000 -99.000   0.070   0.056   0.020   0.032   0.026   0.022   0.020   0.018   0.031   0.120   0.168   0.047
   15 154    78  27.70  28.40  12.50 -99.000   6.104   5.575   0.536   2.843   2.308   0.536   0.000   0.000  249.57  145.92   64.12   81.80    0.00    0.00 -99.000 -99.000 -99.000   0.087   0.072   0.025   0.042   0.034   0.029   0.026   0.023   0.040   0.157   0.231   0.047
   15 155    79  28.80  26.70  12.60 -99.000   6.224   5.682   0.549   5.086   4.537   0.549   0.000   0.000  255.79  151.01   68.66   82.35    0.00    0.00 -99.000 -99.000 -99.000   0.442   0.063   0.011   0.011   0.006   0.004   0.003   0.002   0.003   0.005   0.454   0.048
   15 156    80  28.80  28.10  15.40 -99.000   6.463   5.915   0.554   5.426   4.872   0.554   0.000   0.000  262.25  156.43   73.53   82.90    0.00    0.00 -99.000 -99.000 -99.000   0.436   0.069   0.012   0.013   0.007   0.004   0.003   0.002   0.003   0.006   0.487   0.049
   15 157    81  25.40  30.30  13.20 -99.000   5.743   5.278   0.470   5.704   5.233   0.470   0.000   0.000  268.00  162.14   78.76   83.37    0.00    0.00 -99.000 -99.000 -99.000   0.381   0.052   0.009   0.010   0.005   0.003   0.002   0.002   0.002   0.005   0.523   0.044
   15 158    82  24.00  26.90  16.00 -99.000   5.333   4.919   0.419   6.977   6.558   0.419   0.000   0.000  273.33  169.11   85.32   83.79    0.00    0.00 -99.000 -99.000 -99.000   0.349   0.040   0.007   0.007   0.004   0.003   0.002   0.001   0.002   0.004   0.656   0.052
   15 159    83   8.20  20.10  12.20 -99.000   1.624   1.492   0.134   4.434   4.300   0.134   0.000   0.000  274.95  173.55   89.62   83.93    0.00    0.00 -99.000 -99.000 -99.000   0.027   0.018   0.006   0.009   0.007   0.006   0.006   0.006   0.010   0.040   0.430   0.053
   15 160    84   6.40  13.40  11.20 -99.000   1.148   1.053   0.097   1.500   1.403   0.097   0.000   0.000  276.10  175.05   91.02   84.02    0.00    0.00 -99.000 -99.000 -99.000   0.022   0.015   0.004   0.006   0.005   0.004   0.004   0.004   0.007   0.027   0.140   0.054
   15 161    85   9.80  18.20  11.20 -99.000   1.880   1.722   0.160   0.411   0.251   0.160   0.000   0.000  277.98  175.46   91.27   84.18    0.00    0.00 -99.000 -99.000 -99.000   0.033   0.024   0.008   0.010   0.008   0.007   0.007   0.006   0.012   0.046   0.025   0.054
   15 162    86  16.90  22.40  14.20 -99.000   3.513   3.213   0.304   1.595   1.291   0.304   0.000   0.000  281.50  177.05   92.57   84.49    0.00    0.00 -99.000 -99.000 -99.000   0.059   0.045   0.015   0.021   0.015   0.014   0.013   0.012   0.022   0.088   0.129   0.054
   15 163    87  28.20  28.90  12.90 -99.000   6.274   5.729   0.552   3.169   2.618   0.552   0.000   0.000  287.77  180.22   95.18   85.04    0.00    0.00 -99.000 -99.000 -99.000   0.105   0.081   0.028   0.038   0.027   0.025   0.023   0.022   0.040   0.162   0.262   0.054
   15 164    88  20.20  25.50  14.70 -99.000   4.379   3.991   0.392   7.816   7.423   0.392   0.000   0.000  292.15  188.04  102.61   85.43    0.00    0.00 -99.000 -99.000 -99.000   0.084   0.057   0.020   0.026   0.018   0.017   0.016   0.015   0.027   0.111   0.742   0.055
   15 165    89  23.60  24.90  15.30 -99.000   5.111   4.650   0.467   4.561   4.095   0.467   0.000   0.000  297.26  192.60  106.70   85.90    0.00    0.00 -99.000 -99.000 -99.000   0.102   0.069   0.024   0.031   0.021   0.019   0.018   0.018   0.032   0.133   0.409   0.055
   15 166    90   9.00  16.60  13.60 -99.000   1.728   1.570   0.161   4.187   4.026   0.161   0.000   0.000  298.99  196.79  110.73   86.06    0.00    0.00 -99.000 -99.000 -99.000   0.035   0.026   0.009   0.011   0.007   0.006   0.006   0.006   0.011   0.044   0.403   0.054
   15 167    91  18.90  19.00  11.40 -99.000   3.679   3.337   0.347   0.883   0.536   0.347   0.000   0.000  302.67  197.67  111.26   86.41    0.00    0.00 -99.000 -99.000 -99.000   0.071   0.055   0.019   0.027   0.018   0.013   0.013   0.012   0.023   0.095   0.054   0.057
   15 168    92  21.70  19.50  10.10 -99.000   4.202   3.805   0.402   2.609   2.207   0.402   0.000   0.000  306.87  200.28  113.47   86.81    0.00    0.00 -99.000 -99.000 -99.000   0.077   0.061   0.021   0.032   0.025   0.018   0.015   0.015   0.027   0.112   0.221   0.057
   15 169    93   8.60  17.20   9.30 -99.000   1.602   1.448   0.155   3.073   2.918   0.155   0.000   0.000  308.47  203.35  116.39   86.96    0.00    0.00 -99.000 -99.000 -99.000   0.033   0.024   0.008   0.012   0.009   0.007   0.005   0.005   0.010   0.041   0.292   0.057
   15 170    94  15.30  15.50  10.90 -99.000   2.828   2.555   0.278   1.504   1.226   0.278   0.000   0.000  311.30  204.86  117.61   87.24    0.00    0.00 -99.000 -99.000 -99.000   0.057   0.041   0.014   0.021   0.017   0.014   0.011   0.010   0.018   0.075   0.123   0.058
   15 171    95  14.50  15.10   9.40 -99.000   2.626   2.369   0.261   1.263   1.002   0.261   0.000   0.000  313.93  206.12  118.62   87.50    0.00    0.00 -99.000 -99.000 -99.000   0.051   0.038   0.014   0.020   0.016   0.014   0.011   0.009   0.017   0.071   0.100   0.058
   15 172    96  14.20  17.60   9.50 -99.000   2.666   2.402   0.268   1.389   1.121   0.268   0.000   0.000  316.59  207.51  119.74   87.77    0.00    0.00 -99.000 -99.000 -99.000   0.051   0.039   0.014   0.021   0.017   0.014   0.011   0.009   0.017   0.073   0.112   0.058
   15 173    97  14.10  20.50  11.90 -99.000   2.813   2.530   0.286   2.041   1.755   0.286   0.000   0.000  319.40  209.55  121.49   88.06    0.00    0.00 -99.000 -99.000 -99.000   0.053   0.041   0.014   0.023   0.018   0.015   0.013   0.010   0.019   0.080   0.175   0.059
   15 174    98  19.10  16.60   9.70 -99.000   3.543   3.187   0.360   2.423   2.062   0.360   0.000   0.000  322.95  211.97  123.55   88.42    0.00    0.00 -99.000 -99.000 -99.000   0.069   0.051   0.018   0.028   0.023   0.019   0.016   0.013   0.024   0.100   0.206   0.059
   15 175    99  22.70  19.80   8.00 -99.000   4.337   3.889   0.454   2.185   1.731   0.454   0.000   0.000  327.28  214.16  125.29   88.87    0.00    0.00 -99.000 -99.000 -99.000   0.086   0.065   0.022   0.035   0.028   0.024   0.021   0.016   0.030   0.126   0.173   0.059
   15 176   100  22.80  21.30   6.40 -99.000   4.382   3.918   0.469   4.014   3.546   0.469   0.000   0.000  331.67  218.17  128.83   89.34    0.00    0.00 -99.000 -99.000 -99.000   0.086   0.067   0.023   0.037   0.029   0.025   0.022   0.017   0.031   0.132   0.355   0.059
   15 177   101  24.60  24.50   8.50 -99.000   5.022   4.478   0.550   5.068   4.518   0.550   0.000   0.000  336.69  223.24  133.35   89.89    0.00    0.00 -99.000 -99.000 -99.000   0.449   0.061   0.010   0.010   0.005   0.003   0.002   0.001   0.002   0.004   0.452   0.059
   15 178   102  13.00  22.90  13.80 -99.000   2.719   2.417   0.305   6.119   5.815   0.305   0.000   0.000  339.41  229.36  139.16   90.19    0.00    0.00 -99.000 -99.000 -99.000   0.247   0.035   0.006   0.006   0.003   0.002   0.001   0.001   0.001   0.003   0.581   0.059
   15 179   103  24.90  22.70  13.00 -99.000   5.164   4.574   0.595   2.987   2.391   0.595   0.000   0.000  344.57  232.34  141.56   90.79    0.00    0.00 -99.000 -99.000 -99.000   0.481   0.068   0.012   0.012   0.006   0.004   0.003   0.002   0.002   0.005   0.239   0.060
   15 180   104  23.30  25.20  12.50 -99.000   4.964   4.379   0.590   4.329   3.739   0.590   0.000   0.000  349.54  236.67  145.29   91.38    0.00    0.00 -99.000 -99.000 -99.000   0.470   0.072   0.012   0.013   0.007   0.004   0.003   0.002   0.003   0.006   0.374   0.060
   15 181   105  27.00  29.00  12.20 -99.000   6.007   5.276   0.736   5.567   4.831   0.736   0.000   0.000  355.54  242.24  150.12   92.11    0.00    0.00 -99.000 -99.000 -99.000   0.574   0.096   0.016   0.017   0.009   0.006   0.004   0.003   0.004   0.008   0.483   0.060
   15 182   106  28.90  28.60  13.50 -99.000   6.465   5.653   0.818   7.836   7.154   0.682   0.000   0.000  362.01  250.08  157.28   92.80    0.00    0.00 -99.000 -99.000 -99.000   0.517   0.097   0.016   0.017   0.009   0.006   0.004   0.003   0.004   0.008   0.715   0.051
   15 183   107  29.10  29.70  14.80 -99.000   6.660   5.794   0.872   7.380   6.792   0.588   0.000   0.000  368.67  257.46  164.07   93.38    0.00    0.00 -99.000 -99.000 -99.000   0.432   0.091   0.015   0.016   0.009   0.006   0.004   0.003   0.004   0.008   0.679   0.049
   15 184   108  23.10  31.90  14.10 -99.000   5.393   4.666   0.732   7.303   6.783   0.520   0.000   0.000  374.06  264.76  170.85   93.90    0.00    0.00 -99.000 -99.000 -99.000   0.373   0.086   0.014   0.016   0.008   0.005   0.004   0.002   0.004   0.008   0.678   0.049
   15 185   109  27.30  32.90  16.20 -99.000   6.548   5.631   0.922   6.562   6.092   0.470   0.000   0.000  380.61  271.32  176.95   94.37    0.00    0.00 -99.000 -99.000 -99.000   0.331   0.081   0.013   0.015   0.008   0.005   0.004   0.002   0.004   0.008   0.609   0.044
   15 186   110  27.80  33.40  17.60 -99.000   6.770   5.821   0.954   6.658   6.225   0.434   0.000   0.000  387.38  277.98  183.17   94.81    0.00    0.00 -99.000 -99.000 -99.000   0.302   0.076   0.012   0.014   0.008   0.005   0.004   0.002   0.003   0.008   0.622   0.033
   15 187   111  23.90  28.80  17.60 -99.000   5.534   4.755   0.784   6.327   5.891   0.436   0.000   0.000  392.91  284.31  189.06   95.24    0.00    0.00 -99.000 -99.000 -99.000   0.311   0.072   0.011   0.013   0.007   0.005   0.003   0.002   0.003   0.008   0.589   0.025
   15 188   112  26.60  33.80  16.40 -99.000   6.453   5.536   0.922   4.827   4.188   0.640   0.000   0.000  399.37  289.13  193.25   95.88    0.00    0.00 -99.000 -99.000 -99.000   0.520   0.068   0.010   0.013   0.007   0.004   0.003   0.002   0.003   0.008   0.419   0.019
   15 189   113  16.00  21.00  13.80 -99.000   3.284   2.813   0.475   6.798   6.324   0.475   0.000   0.000  402.65  295.93  199.57   96.36    0.00    0.00 -99.000 -99.000 -99.000   0.418   0.033   0.004   0.006   0.003   0.002   0.001   0.001   0.002   0.004   0.632   0.026
   15 190   114  17.20  19.10   8.70 -99.000   3.300   2.820   0.484   2.340   1.856   0.484   0.000   0.000  405.95  298.27  201.43   96.84    0.00    0.00 -99.000 -99.000 -99.000   0.117   0.054   0.013   0.027   0.022   0.020   0.019   0.016   0.032   0.164   0.186   0.025
   15 191   115  29.60  22.40   7.30 -99.000   5.862   4.997   0.872   3.234   2.363   0.872   0.000   0.000  411.81  301.51  203.79   97.71    0.00    0.00 -99.000 -99.000 -99.000   0.202   0.099   0.024   0.049   0.040   0.036   0.034   0.029   0.058   0.300   0.236   0.025
   15 192   116  26.20  28.30   8.30 -99.000   5.638   4.795   0.848   6.067   5.218   0.848   0.000   0.000  417.45  307.57  209.01   98.56    0.00    0.00 -99.000 -99.000 -99.000   0.744   0.064   0.008   0.010   0.005   0.003   0.003   0.002   0.003   0.007   0.522   0.023
   15 193   117  24.30  27.70  13.30 -99.000   5.399   4.580   0.824   8.058   7.264   0.794   0.000   0.000  422.85  315.63  216.27   99.36    0.00    0.00 -99.000 -99.000 -99.000   0.678   0.070   0.009   0.011   0.006   0.004   0.003   0.002   0.003   0.008   0.726   0.020
   15 194   118  10.70  21.00  15.80 -99.000   2.234   1.889   0.348   5.642   5.295   0.348   0.000   0.000  425.08  321.27  221.57   99.70    0.00    0.00 -99.000 -99.000 -99.000   0.289   0.035   0.005   0.006   0.003   0.002   0.001   0.001   0.002   0.004   0.529   0.009
   15 195   119  16.40  25.80  15.40 -99.000   3.622   3.048   0.577   1.655   1.078   0.577   0.000   0.000  428.70  322.93  222.65  100.28    0.00    0.00 -99.000 -99.000 -99.000   0.477   0.059   0.008   0.010   0.005   0.003   0.002   0.002   0.003   0.007   0.108   0.008
   15 196   120  23.80  27.40  16.00 -99.000   5.381   4.508   0.878   3.516   2.963   0.553   0.000   0.000  434.08  326.44  225.61  100.83    0.00    0.00 -99.000 -99.000 -99.000   0.449   0.061   0.008   0.010   0.006   0.004   0.003   0.002   0.003   0.008   0.296   0.007
   15 197   121  26.30  31.10  13.60 -99.000   6.093   5.074   1.024   4.590   4.105   0.485   0.000   0.000  440.18  331.03  229.71  101.32    0.00    0.00 -99.000 -99.000 -99.000   0.383   0.059   0.008   0.010   0.005   0.003   0.002   0.002   0.003   0.008   0.411   0.006
   15 198   122  23.70  33.90  15.30 -99.000   5.737   4.745   0.997   6.718   6.287   0.431   0.000   0.000  445.91  337.75  236.00  101.75    0.00    0.00 -99.000 -99.000 -99.000   0.333   0.057   0.008   0.010   0.005   0.003   0.002   0.002   0.003   0.008   0.629   0.005
   15 199   123  16.30  29.10  14.80 -99.000   3.729   3.060   0.672   5.817   5.403   0.414   0.000   0.000  449.64  343.57  241.40  102.16    0.00    0.00 -99.000 -99.000 -99.000   0.321   0.053   0.008   0.009   0.005   0.003   0.002   0.002   0.003   0.008   0.540   0.004
   15 200   124  16.90  28.80  16.00 -99.000   3.894   3.165   0.732   3.540   3.118   0.422   0.000   0.000  453.54  347.11  244.52  102.59    0.00    0.00 -99.000 -99.000 -99.000   0.332   0.051   0.008   0.009   0.005   0.003   0.002   0.002   0.002   0.008   0.312   0.003
   15 201   125  19.90  28.50  18.10 -99.000   4.649   3.740   0.913   3.100   2.687   0.413   0.000   0.000  458.19  350.21  247.21  103.00    0.00    0.00 -99.000 -99.000 -99.000   0.325   0.049   0.008   0.009   0.005   0.003   0.002   0.002   0.002   0.008   0.269   0.002
   15 202   126  26.10  32.00  16.50 -99.000   6.271   4.983   1.293   2.709   2.327   0.383   0.000   0.000  464.46  352.92  249.54  103.38    0.00    0.00 -99.000 -99.000 -99.000   0.296   0.048   0.008   0.009   0.005   0.003   0.002   0.002   0.002   0.007   0.233   0.002
   15 203   127  25.00  34.30  15.60 -99.000   6.128   4.796   1.337   3.985   3.630   0.355   0.000   0.000  470.59  356.90  253.17  103.74    0.00    0.00 -99.000 -99.000 -99.000   0.269   0.048   0.008   0.009   0.005   0.003   0.002   0.002   0.002   0.007   0.363   0.001
   15 204   128  12.40  24.50  18.30 -99.000   2.783   2.140   0.646   4.017   3.624   0.393   0.000   0.000  473.37  360.92  256.79  104.13    0.00    0.00 -99.000 -99.000 -99.000   0.308   0.047   0.008   0.009   0.005   0.003   0.002   0.001   0.002   0.007   0.362   0.001
   15 205   129  21.90  29.10  14.80 -99.000   5.067   3.798   1.273   1.231   0.804   0.427   0.000   0.000  478.44  362.15  257.59  104.56    0.00    0.00 -99.000 -99.000 -99.000   0.343   0.047   0.008   0.009   0.005   0.003   0.002   0.001   0.002   0.007   0.080   0.001
   15 206   130  21.40  25.00  12.60 -99.000   4.647   3.399   1.251   0.435   0.033   0.402   0.000   0.000  483.08  362.58  257.63  104.96    0.00    0.00 -99.000 -99.000 -99.000   0.319   0.047   0.008   0.009   0.005   0.003   0.002   0.001   0.002   0.007   0.003   0.001
   15 207   131  26.60  23.10   8.00 -99.000   5.441   3.869   1.577   0.433   0.010   0.423   0.000   0.000  488.52  363.02  257.64  105.38    0.00    0.00 -99.000 -99.000 -99.000   0.339   0.046   0.008   0.009   0.005   0.003   0.002   0.001   0.002   0.007   0.001   0.001
   15 208   132  19.60  23.80  12.90 -99.000   4.232   2.926   1.310   0.705   0.116   0.589   0.000   0.000  492.76  363.72  257.75  105.97    0.00    0.00 -99.000 -99.000 -99.000   0.506   0.046   0.008   0.009   0.005   0.003   0.002   0.001   0.002   0.007   0.012   0.001
   15 209   133  17.30  22.80  12.10 -99.000   3.689   2.486   1.206   2.615   1.867   0.748   0.000   0.000  496.45  366.34  259.62  106.72    0.00    0.00 -99.000 -99.000 -99.000   0.666   0.046   0.008   0.009   0.005   0.003   0.002   0.001   0.002   0.007   0.187   0.010
   15 210   134  12.70  20.50   9.50 -99.000   2.574   1.685   0.892   2.079   1.455   0.624   0.000   0.000  499.02  368.42  261.08  107.34    0.00    0.00 -99.000 -99.000 -99.000   0.542   0.046   0.008   0.009   0.005   0.003   0.002   0.001   0.002   0.007   0.146   0.002
   15 211   135  21.40  21.80   7.50 -99.000   4.344   2.752   1.596   1.254   0.764   0.490   0.000   0.000  503.36  369.67  261.84  107.83    0.00    0.00 -99.000 -99.000 -99.000   0.407   0.045   0.008   0.009   0.005   0.003   0.002   0.001   0.002   0.007   0.076   0.001
   15 212   136  25.90  23.50   9.30 -99.000   5.468   3.351   2.121   0.394   0.009   0.384   0.000   0.000  508.83  370.06  261.85  108.22    0.00    0.00 -99.000 -99.000 -99.000   0.302   0.045   0.008   0.009   0.005   0.003   0.002   0.001   0.002   0.007   0.001   0.001
   15 213   137  10.30  20.70  13.20 -99.000   2.175   1.284   0.893   0.366   0.009   0.357   0.000   0.000  511.01  370.43  261.86  108.57    0.00    0.00 -99.000 -99.000 -99.000   0.275   0.045   0.008   0.009   0.005   0.003   0.002   0.001   0.002   0.007   0.001   0.001
   15 214   138  19.00  25.10  12.90 -99.000   4.245   2.389   1.859   0.346   0.009   0.336   0.000   0.000  515.25  370.78  261.87  108.91    0.00    0.00 -99.000 -99.000 -99.000   0.255   0.045   0.008   0.009   0.005   0.003   0.002   0.001   0.002   0.007   0.001   0.001
   15 215   139  26.40  28.30  11.20 -99.000   6.074   3.230   2.847   0.327   0.009   0.318   0.000   0.000  521.32  371.10  261.88  109.23    0.00    0.00 -99.000 -99.000 -99.000   0.237   0.044   0.008   0.009   0.005   0.003   0.002   0.001   0.002   0.007   0.001   0.001
   15 216   140  21.20  31.60  12.10 -99.000   5.131   2.533   2.600   0.305   0.009   0.296   0.000   0.000  526.46  371.41  261.89  109.52    0.00    0.00 -99.000 -99.000 -99.000   0.215   0.044   0.008   0.009   0.005   0.003   0.002   0.001   0.002   0.007   0.001   0.001
   15 217   141  24.60  29.90  13.60 -99.000   5.942   2.677   3.268   0.286   0.009   0.277   0.000   0.000  532.40  371.69  261.89  109.80    0.00    0.00 -99.000 -99.000 -99.000   0.196   0.044   0.008   0.009   0.005   0.003   0.002   0.001   0.002   0.007   0.001   0.001
   15 218   142  25.00  33.60  13.20 -99.000   6.345   2.377   3.970   0.268   0.009   0.259   0.000   0.000  538.74  371.96  261.90  110.06    0.00    0.00 -99.000 -99.000 -99.000   0.179   0.044   0.008   0.009   0.005   0.003   0.002   0.001   0.002   0.007   0.001   0.001
   15 219   143  25.30  35.20  14.30 -99.000   6.704   2.104   4.602   0.251   0.009   0.242   0.000   0.000  545.45  372.21  261.91  110.30    0.00    0.00 -99.000 -99.000 -99.000   0.163   0.043   0.008   0.009   0.005   0.003   0.002   0.001   0.002   0.007   0.001   0.001
   15 220   144  22.50  34.90  15.40 -99.000   6.067   0.989   5.079   0.321   0.009   0.313   0.000   0.000  551.51  372.53  261.92  110.61    0.00    0.00 -99.000 -99.000 -99.000   0.233   0.043   0.008   0.009   0.005   0.003   0.002   0.001   0.002   0.007   0.001   0.001
   15 221   145  22.20  33.30  16.10 -99.000   6.101   0.000   6.101   0.377   0.000   0.377   0.000   0.000  557.61  372.91  261.92  110.99    0.00    0.00 -99.000 -99.000 -99.000   0.297   0.043   0.008   0.009   0.005   0.003   0.002   0.001   0.002   0.007   0.000   0.000
   15 222   146  18.70  30.00  17.80 -99.000   5.012   0.000   5.012   0.350   0.000   0.350   0.000   0.000  562.63  373.26  261.92  111.34    0.00    0.00 -99.000 -99.000 -99.000   0.271   0.043   0.008   0.009   0.005   0.003   0.002   0.001   0.002   0.007   0.000   0.000
   15 223   147  19.70  31.90  16.30 -99.000   5.327   0.000   5.327   0.325   0.000   0.325   0.000   0.000  567.95  373.59  261.92  111.67    0.00    0.00 -99.000 -99.000 -99.000   0.246   0.042   0.008   0.009   0.005   0.003   0.002   0.001   0.002   0.007   0.000   0.000
   15 224   148  21.10  33.40  14.20 -99.000   5.706   0.000   5.706   0.303   0.000   0.303   0.000   0.000  573.66  373.89  261.92  111.97    0.00    0.00 -99.000 -99.000 -99.000   0.224   0.042   0.008   0.009   0.005   0.003   0.002   0.001   0.002   0.007   0.000   0.000
   15 225   149  21.70  33.80  14.50 -99.000   5.901   0.000   5.901   0.283   0.000   0.283   0.000   0.000  579.56  374.17  261.92  112.25    0.00    0.00 -99.000 -99.000 -99.000   0.204   0.042   0.008   0.009   0.005   0.003   0.002   0.001   0.002   0.007   0.000   0.000
   15 226   150  19.40  32.00  17.30 -99.000   5.275   0.000   5.275   0.475   0.000   0.475   0.000   0.000  584.84  374.65  261.92  112.73    0.00    0.00 -99.000 -99.000 -99.000   0.397   0.042   0.008   0.009   0.005   0.003   0.002   0.001   0.002   0.007   0.000   0.000
   15 227   151  15.30  25.70  15.90 -99.000   3.903   0.000   3.903   0.681   0.000   0.681   0.000   0.000  588.74  375.33  261.92  113.41    0.00    0.00 -99.000 -99.000 -99.000   0.603   0.041   0.008   0.009   0.005   0.003   0.002   0.001   0.002   0.007   0.000   0.000
   15 228   152   6.50  18.90  14.80 -99.000   1.511   0.000   1.511   0.904   0.000   0.904   0.000   0.000  590.25  376.23  261.92  114.31    0.00    0.00 -99.000 -99.000 -99.000   0.823   0.045   0.008   0.009   0.005   0.003   0.002   0.001   0.002   0.007   0.000   0.000
   15 229   153   6.90  15.80  12.90 -99.000   1.542   0.000   1.542   1.542   0.000   1.542   0.000   0.000  591.79  377.77  261.92  115.85    0.00    0.00 -99.000 -99.000 -99.000   0.473   0.145   0.041   0.071   0.059   0.051   0.046   0.041   0.075   0.542   0.000   0.000
   15 230   154  17.90  21.50  11.30 -99.000   4.285   0.000   4.285   4.285   0.000   4.285   0.000   0.000  596.08  382.06  261.92  120.14    0.00    0.00 -99.000 -99.000 -99.000   1.245   0.474   0.112   0.196   0.163   0.141   0.127   0.114   0.207   1.506   0.000   0.000
   15 231   155  10.30  20.00  13.40 -99.000   2.437   0.000   2.437   2.437   0.000   2.437   0.000   0.000  598.51  384.50  261.92  122.58    0.00    0.00 -99.000 -99.000 -99.000   0.655   0.284   0.064   0.113   0.094   0.082   0.074   0.066   0.121   0.883   0.000   0.000
   15 232   156  11.70  20.60  12.00 -99.000   2.749   0.000   2.749   0.961   0.000   0.961   0.000   0.000  601.26  385.46  261.92  123.54    0.00    0.00 -99.000 -99.000 -99.000   0.861   0.065   0.007   0.008   0.004   0.003   0.002   0.001   0.002   0.007   0.000   0.000
   15 233   157  16.90  21.20   9.70 -99.000   3.910   0.000   3.910   0.888   0.000   0.888   0.000   0.000  605.17  386.34  261.92  124.42    0.00    0.00 -99.000 -99.000 -99.000   0.788   0.065   0.007   0.008   0.004   0.003   0.002   0.001   0.002   0.007   0.000   0.000
   15 234   158  21.10  24.90   8.20 -99.000   5.039   0.000   5.039   0.817   0.000   0.817   0.000   0.000  610.21  387.16  261.92  125.24    0.00    0.00 -99.000 -99.000 -99.000   0.717   0.064   0.007   0.008   0.004   0.003   0.002   0.001   0.002   0.007   0.000   0.000
   15 235   159  20.90  27.40  11.80 -99.000   5.286   0.000   5.286   0.855   0.000   0.855   0.000   0.000  615.50  388.02  261.92  126.10    0.00    0.00 -99.000 -99.000 -99.000   0.756   0.064   0.007   0.008   0.004   0.003   0.002   0.001   0.002   0.007   0.000   0.000
   15 236   160  16.00  28.70  14.00 -99.000   4.208   0.000   4.208   4.208   0.000   4.208   0.000   0.000  619.71  392.22  261.92  130.30    0.00    0.00 -99.000 -99.000 -99.000   1.170   0.668   0.135   0.174   0.146   0.128   0.115   0.103   0.189   1.379   0.000   0.000
   15 237   161  20.20  21.40   8.80 -99.000   4.736   0.000   4.736   4.736   0.000   4.736   0.000   0.000  624.44  396.96  261.92  135.04    0.00    0.00 -99.000 -99.000 -99.000   1.364   0.908   0.204   0.174   0.147   0.128   0.116   0.104   0.191   1.399   0.000   0.000

*DSSAT Cropping System Model Ver. 4.8.5.000 -release  MAR 01, 2026 09:34:20

*RUN   2        : 2                         WHAPS048 TUDU1501    2
 MODEL          : WHAPS048 - Wheat
 EXPERIMENT     : TUDU1501 WH
 DATA PATH      :
 TREATMENT  2   : 2                         WHAPS048
  
!                                                                                                                                                                                        Soil evaporation (mm/d) by soil depth (cm):
!                                                                                                                                                                                        0-5    5-15   15-20   20-30   30-40   40-50   50-60   60-70   70-90  90-210
@YEAR DOY   DAS   SRAA  TMAXA  TMINA    REFA    EOAA    EOPA    EOSA    ETAA    EPAA    ESAA    EFAA    EMAA    EOAC    ETAC    EPAC    ESAC    EFAC    EMAC    KCAA    KBSA    KEAA    ES1D    ES2D    ES3D    ES4D    ES5D    ES6D    ES7D    ES8D    ES9D  ES10D   TRWUD   TWUPD
   15 077     1  16.00  14.60   0.70 -99.000   3.096   0.000   3.096   1.022   0.000   1.022   0.000   0.000    3.10    1.02    0.00    1.02    0.00    0.00 -99.000 -99.000 -99.000   0.841   0.108   0.018   0.019   0.010   0.006   0.004   0.003   0.004   0.008   0.000   0.000
   15 078     2  17.30  13.60  -1.00 -99.000   3.234   0.000   3.234   1.092   0.000   1.092   0.000   0.000    6.33    2.11    0.00    2.11    0.00    0.00 -99.000 -99.000 -99.000   0.902   0.116   0.019   0.019   0.010   0.006   0.004   0.003   0.004   0.008   0.000   0.000
   15 079     3  17.60  13.30  -2.60 -99.000   3.204   0.000   3.204   0.998   0.000   0.998   0.000   0.000    9.53    3.11    0.00    3.11    0.00    0.00 -99.000 -99.000 -99.000   0.808   0.115   0.019   0.019   0.010   0.006   0.004   0.003   0.004   0.008   0.000   0.000
   15 080     4  13.10  14.00  -3.40 -99.000   2.383   0.000   2.383   1.052   0.000   1.052   0.000   0.000   11.92    4.16    0.00    4.16    0.00    0.00 -99.000 -99.000 -99.000   0.863   0.115   0.019   0.019   0.010   0.006   0.004   0.003   0.004   0.008   0.000   0.000
   15 081     5   5.50   5.70   2.60 -99.000   0.936   0.000   0.936   0.936   0.000   0.936   0.000   0.000   12.85    5.10    0.00    5.10    0.00    0.00 -99.000 -99.000 -99.000   0.781   0.094   0.015   0.016   0.008   0.005   0.004   0.003   0.003   0.007   0.000   0.000
   15 082     6   7.00   6.30  -0.80 -99.000   1.156   0.000   1.156   1.095   0.000   1.095   0.000   0.000   14.01    6.19    0.00    6.19    0.00    0.00 -99.000 -99.000 -99.000   0.907   0.114   0.019   0.019   0.010   0.006   0.004   0.003   0.004   0.008   0.000   0.000
   15 083     7  15.70  15.20  -2.00 -99.000   2.969   0.000   2.969   1.000   0.000   1.000   0.000   0.000   16.98    7.19    0.00    7.19    0.00    0.00 -99.000 -99.000 -99.000   0.813   0.113   0.019   0.019   0.010   0.006   0.004   0.003   0.004   0.008   0.000   0.000
   15 084     8  14.20  15.20   2.70 -99.000   2.810   0.000   2.810   0.916   0.000   0.916   0.000   0.000   19.79    8.11    0.00    8.11    0.00    0.00 -99.000 -99.000 -99.000   0.729   0.113   0.019   0.019   0.010   0.006   0.004   0.003   0.004   0.008   0.000   0.000
   15 085     9   3.50   7.70   4.90 -99.000   0.627   0.000   0.627   0.627   0.000   0.627   0.000   0.000   20.42    8.74    0.00    8.74    0.00    0.00 -99.000 -99.000 -99.000   0.494   0.080   0.013   0.014   0.007   0.004   0.003   0.002   0.003   0.006   0.000   0.000
   15 086    10  10.20   9.10   3.80 -99.000   1.848   0.000   1.848   0.921   0.000   0.921   0.000   0.000   22.26    9.66    0.00    9.66    0.00    0.00 -99.000 -99.000 -99.000   0.736   0.111   0.019   0.019   0.010   0.006   0.004   0.003   0.004   0.008   0.000   0.000
   15 087    11  17.20  11.80   1.00 -99.000   3.167   0.000   3.167   0.909   0.000   0.909   0.000   0.000   25.43   10.57    0.00   10.57    0.00    0.00 -99.000 -99.000 -99.000   0.725   0.110   0.019   0.019   0.010   0.006   0.004   0.003   0.004   0.008   0.000   0.000
   15 088    12   6.30  12.50   6.50 -99.000   1.240   0.000   1.240   0.885   0.000   0.885   0.000   0.000   26.67   11.45    0.00   11.45    0.00    0.00 -99.000 -99.000 -99.000   0.701   0.110   0.019   0.019   0.010   0.006   0.004   0.003   0.004   0.008   0.000   0.000
   15 089    13   9.40   9.50   3.80 -99.000   1.711   0.021   1.690   1.175   0.021   1.154   0.000   0.000   28.38   12.63    0.02   12.61    0.00    0.00 -99.000 -99.000 -99.000   0.965   0.116   0.018   0.019   0.010   0.006   0.004   0.003   0.004   0.008   0.002   0.007
   15 090    14   8.20  13.90   1.60 -99.000   1.597   0.022   1.574   1.581   0.006   1.574   0.000   0.000   29.98   14.21    0.03   14.18    0.00    0.00 -99.000 -99.000 -99.000   0.347   0.226   0.071   0.111   0.092   0.077   0.070   0.062   0.107   0.413   0.001   0.007
   15 091    15  13.40   6.50   0.20 -99.000   2.274   0.036   2.237   2.255   0.017   2.237   0.000   0.000   32.25   16.46    0.04   16.42    0.00    0.00 -99.000 -99.000 -99.000   0.510   0.331   0.107   0.155   0.127   0.106   0.096   0.086   0.148   0.571   0.002   0.007
   15 092    16   7.30   6.00   0.20 -99.000   1.229   0.022   1.207   1.214   0.007   1.207   0.000   0.000   33.48   17.68    0.05   17.62    0.00    0.00 -99.000 -99.000 -99.000   0.280   0.182   0.062   0.085   0.067   0.056   0.051   0.045   0.078   0.302   0.001   0.007
   15 093    17  20.70   9.70  -1.40 -99.000   3.664   0.070   3.594   3.599   0.004   3.594   0.000   0.000   37.14   21.27    0.06   21.22    0.00    0.00 -99.000 -99.000 -99.000   0.753   0.538   0.186   0.275   0.214   0.173   0.155   0.138   0.239   0.923   0.000   0.007
   15 094    18   7.40   5.30   1.90 -99.000   1.245   0.028   1.217   1.241   0.025   1.217   0.000   0.000   38.39   22.52    0.08   22.44    0.00    0.00 -99.000 -99.000 -99.000   0.258   0.180   0.063   0.095   0.076   0.059   0.052   0.046   0.080   0.309   0.002   0.007
   15 095    19  13.90   6.90  -2.00 -99.000   2.311   0.057   2.254   2.258   0.003   2.254   0.000   0.000   40.70   24.77    0.08   24.69    0.00    0.00 -99.000 -99.000 -99.000   0.456   0.333   0.115   0.179   0.142   0.115   0.098   0.086   0.150   0.580   0.000   0.007
   15 096    20  10.30   6.20  -2.40 -99.000   1.668   0.044   1.624   1.639   0.014   1.624   0.000   0.000   42.37   26.41    0.10   26.31    0.00    0.00 -99.000 -99.000 -99.000   0.311   0.240   0.084   0.131   0.104   0.088   0.072   0.063   0.109   0.423   0.001   0.007
   15 097    21  20.90   8.70  -2.90 -99.000   3.513   0.096   3.417   3.428   0.011   3.417   0.000   0.000   45.88   29.84    0.11   29.73    0.00    0.00 -99.000 -99.000 -99.000   0.632   0.506   0.175   0.278   0.222   0.187   0.153   0.133   0.232   0.899   0.001   0.007
   15 098    22  19.80  13.40  -0.20 -99.000   3.707   0.111   3.596   1.139   0.031   1.108   0.000   0.000   49.59   30.98    0.14   30.84    0.00    0.00 -99.000 -99.000 -99.000   0.905   0.124   0.021   0.021   0.011   0.007   0.004   0.003   0.004   0.008   0.003   0.007
   15 099    23  20.00  18.00   2.40 -99.000   4.109   0.151   3.958   1.082   0.065   1.016   0.000   0.000   53.70   32.06    0.21   31.85    0.00    0.00 -99.000 -99.000 -99.000   0.815   0.123   0.021   0.021   0.011   0.007   0.004   0.003   0.004   0.008   0.007   0.007
   15 100    24  20.60  21.00   1.70 -99.000   4.367   0.201   4.166   1.064   0.132   0.932   0.000   0.000   58.06   33.12    0.34   32.79    0.00    0.00 -99.000 -99.000 -99.000   0.731   0.122   0.021   0.021   0.011   0.007   0.004   0.003   0.004   0.008   0.013   0.007
   15 101    25  13.40  18.10   5.30 -99.000   2.805   0.163   2.643   1.086   0.234   0.852   0.000   0.000   60.87   34.21    0.57   33.64    0.00    0.00 -99.000 -99.000 -99.000   0.653   0.121   0.021   0.021   0.011   0.007   0.004   0.003   0.004   0.008   0.023   0.007
   15 102    26  15.40  18.90   5.70 -99.000   3.257   0.225   3.032   0.922   0.146   0.776   0.000   0.000   64.13   35.13    0.72   34.41    0.00    0.00 -99.000 -99.000 -99.000   0.578   0.119   0.021   0.021   0.011   0.007   0.004   0.003   0.004   0.008   0.015   0.004
   15 103    27  15.80  18.40   5.30 -99.000   3.289   0.274   3.016   0.917   0.205   0.712   0.000   0.000   67.41   36.05    0.92   35.13    0.00    0.00 -99.000 -99.000 -99.000   0.516   0.118   0.021   0.021   0.011   0.007   0.004   0.003   0.004   0.008   0.021   0.002
   15 104    28  20.40  18.80   5.40 -99.000   4.253   0.425   3.829   0.895   0.242   0.653   0.000   0.000   71.67   36.94    1.16   35.78    0.00    0.00 -99.000 -99.000 -99.000   0.458   0.117   0.020   0.021   0.011   0.007   0.004   0.003   0.004   0.008   0.024   0.002
   15 105    29  23.10  23.30   5.50 -99.000   5.099   0.622   4.477   0.957   0.356   0.601   0.000   0.000   76.77   37.90    1.52   36.38    0.00    0.00 -99.000 -99.000 -99.000   0.408   0.115   0.020   0.021   0.011   0.007   0.004   0.003   0.004   0.008   0.036   0.002
   15 106    30  14.80  21.80   9.60 -99.000   3.303   0.477   2.826   1.200   0.641   0.559   0.000   0.000   80.07   39.10    2.16   36.94    0.00    0.00 -99.000 -99.000 -99.000   0.368   0.113   0.020   0.021   0.011   0.007   0.004   0.003   0.004   0.008   0.064   0.002
   15 107    31   8.40  16.40   5.30 -99.000   1.666   0.270   1.396   1.727   0.332   1.396   0.000   0.000   81.73   40.83    2.49   38.33    0.00    0.00 -99.000 -99.000 -99.000   0.228   0.219   0.078   0.116   0.092   0.078   0.063   0.055   0.095   0.371   0.033   0.003
   15 108    32  18.30  10.10   0.90 -99.000   3.247   0.564   2.684   2.833   0.148   2.684   0.000   0.000   84.98   43.66    2.64   41.02    0.00    0.00 -99.000 -99.000 -99.000   0.552   0.413   0.141   0.209   0.167   0.140   0.118   0.104   0.174   0.666   0.015   0.008
   15 109    33  24.60  12.90  -0.10 -99.000   4.474   0.824   3.652   3.852   0.200   3.652   0.000   0.000   89.46   47.51    2.84   44.67    0.00    0.00 -99.000 -99.000 -99.000   0.692   0.545   0.187   0.291   0.232   0.195   0.172   0.153   0.252   0.931   0.020   0.008
   15 110    34  24.50  16.50  -0.20 -99.000   4.677   0.937   3.742   4.172   0.430   3.742   0.000   0.000   94.13   51.68    3.27   48.41    0.00    0.00 -99.000 -99.000 -99.000   0.670   0.552   0.191   0.302   0.242   0.204   0.180   0.160   0.269   0.973   0.043   0.009
   15 111    35  25.00  19.70   1.60 -99.000   5.059   1.134   3.927   1.784   0.752   1.031   0.000   0.000   99.19   53.47    4.02   49.44    0.00    0.00 -99.000 -99.000 -99.000   0.832   0.121   0.020   0.021   0.011   0.007   0.005   0.003   0.004   0.008   0.075   0.009
   15 112    36  24.40  19.80   2.60 -99.000   4.945   1.266   3.681   2.065   1.149   0.916   0.000   0.000  104.14   55.53    5.17   50.36    0.00    0.00 -99.000 -99.000 -99.000   0.719   0.118   0.020   0.021   0.011   0.007   0.005   0.003   0.004   0.008   0.115   0.010
   15 113    37  15.80  12.20   0.00 -99.000   2.748   0.795   1.955   2.072   1.270   0.801   0.000   0.000  106.89   57.60    6.44   51.16    0.00    0.00 -99.000 -99.000 -99.000   0.609   0.115   0.020   0.021   0.011   0.007   0.005   0.003   0.004   0.008   0.127   0.010
   15 114    38  24.00  18.20  -0.70 -99.000   4.533   1.367   3.169   1.165   0.460   0.705   0.000   0.000  111.42   58.77    6.90   51.87    0.00    0.00 -99.000 -99.000 -99.000   0.517   0.111   0.020   0.020   0.011   0.007   0.005   0.003   0.004   0.008   0.046   0.007
   15 115    39  12.80  19.70   3.10 -99.000   2.550   0.835   1.716   2.090   1.373   0.717   0.000   0.000  113.97   60.86    8.28   52.58    0.00    0.00 -99.000 -99.000 -99.000   0.531   0.109   0.020   0.020   0.011   0.007   0.005   0.003   0.004   0.008   0.137   0.006
   15 116    40  19.20  20.00  10.10 -99.000   4.083   1.471   2.614   1.844   1.059   0.785   0.000   0.000  118.05   62.70    9.34   53.37    0.00    0.00 -99.000 -99.000 -99.000   0.605   0.104   0.019   0.020   0.011   0.007   0.005   0.003   0.004   0.008   0.106   0.008
   15 117    41  21.10  22.80   6.30 -99.000   4.479   1.803   2.679   2.104   1.100   1.004   0.000   0.000  122.53   64.81   10.44   54.37    0.00    0.00 -99.000 -99.000 -99.000   0.825   0.103   0.019   0.020   0.011   0.007   0.005   0.003   0.004   0.008   0.110   0.012
   15 118    42   8.40  12.10   4.50 -99.000   1.505   0.665   0.841   2.999   2.157   0.841   0.000   0.000  124.04   67.81   12.59   55.21    0.00    0.00 -99.000 -99.000 -99.000   0.182   0.110   0.038   0.063   0.053   0.045   0.040   0.035   0.060   0.216   0.216   0.016
   15 119    43  22.40  13.10   0.80 -99.000   3.929   1.811   2.121   2.473   0.353   2.121   0.000   0.000  127.96   70.28   12.95   57.33    0.00    0.00 -99.000 -99.000 -99.000   0.437   0.298   0.093   0.157   0.133   0.114   0.101   0.090   0.151   0.548   0.035   0.017
   15 120    44  16.60  15.40   5.30 -99.000   3.139   1.490   1.651   2.675   1.024   1.651   0.000   0.000  131.10   72.95   13.97   58.98    0.00    0.00 -99.000 -99.000 -99.000   0.329   0.240   0.072   0.122   0.104   0.089   0.078   0.070   0.118   0.428   0.102   0.018
   15 121    45   8.10   9.60   7.70 -99.000   1.427   0.715   0.713   1.683   0.970   0.713   0.000   0.000  132.53   74.64   14.94   59.70    0.00    0.00 -99.000 -99.000 -99.000   0.149   0.114   0.036   0.056   0.044   0.036   0.032   0.028   0.047   0.172   0.097   0.019
   15 122    46  12.30  13.60   7.40 -99.000   2.306   1.200   1.108   1.202   0.094   1.108   0.000   0.000  134.84   75.84   15.03   60.80    0.00    0.00 -99.000 -99.000 -99.000   0.231   0.176   0.066   0.094   0.070   0.057   0.048   0.042   0.070   0.255   0.009   0.020
   15 123    47   9.10  16.30  10.20 -99.000   1.809   0.987   0.824   1.353   0.529   0.824   0.000   0.000  136.65   77.19   15.56   61.63    0.00    0.00 -99.000 -99.000 -99.000   0.175   0.132   0.048   0.070   0.053   0.043   0.036   0.031   0.051   0.184   0.053   0.021
   15 124    48  16.10  20.70  14.20 -99.000   3.505   2.019   1.488   2.055   0.566   1.488   0.000   0.000  140.15   79.25   16.13   63.12    0.00    0.00 -99.000 -99.000 -99.000   0.297   0.229   0.079   0.122   0.095   0.079   0.068   0.060   0.099   0.360   0.057   0.023
   15 125    49  12.10  25.90  12.90 -99.000   2.749   1.683   1.067   2.254   1.187   1.067   0.000   0.000  142.90   81.50   17.32   64.18    0.00    0.00 -99.000 -99.000 -99.000   0.215   0.158   0.057   0.086   0.068   0.056   0.049   0.043   0.072   0.264   0.119   0.023
   15 126    50  14.40  14.60   8.50 -99.000   2.694   1.746   0.950   3.211   2.261   0.950   0.000   0.000  145.59   84.71   19.58   65.13    0.00    0.00 -99.000 -99.000 -99.000   0.198   0.146   0.051   0.079   0.061   0.050   0.043   0.037   0.061   0.224   0.226   0.025
   15 127    51  22.10  18.00   8.00 -99.000   4.310   2.873   1.442   2.233   0.791   1.442   0.000   0.000  149.90   86.94   20.37   66.58    0.00    0.00 -99.000 -99.000 -99.000   0.277   0.217   0.075   0.119   0.093   0.076   0.066   0.057   0.097   0.364   0.079   0.027
   15 128    52  23.90  22.20   8.80 -99.000   4.936   3.384   1.557   3.566   2.009   1.557   0.000   0.000  154.84   90.51   22.38   68.13    0.00    0.00 -99.000 -99.000 -99.000   0.283   0.225   0.078   0.125   0.099   0.082   0.072   0.064   0.109   0.421   0.201   0.028
   15 129    53  13.50  17.60  10.80 -99.000   2.654   1.876   0.781   4.214   3.433   0.781   0.000   0.000  157.49   94.72   25.81   68.91    0.00    0.00 -99.000 -99.000 -99.000   0.148   0.111   0.039   0.061   0.049   0.041   0.036   0.032   0.054   0.210   0.343   0.029
   15 130    54  22.10  19.00   7.40 -99.000   4.287   3.107   1.185   2.324   1.139   1.185   0.000   0.000  161.78   97.05   26.95   70.10    0.00    0.00 -99.000 -99.000 -99.000   0.222   0.165   0.058   0.091   0.073   0.062   0.055   0.049   0.084   0.326   0.114   0.031
   15 131    55  23.50  21.80   5.60 -99.000   4.640   3.435   1.210   3.813   2.603   1.210   0.000   0.000  166.42  100.86   29.55   71.31    0.00    0.00 -99.000 -99.000 -99.000   0.218   0.168   0.059   0.094   0.075   0.064   0.057   0.051   0.087   0.338   0.260   0.033
   15 132    56  23.50  27.50   8.40 -99.000   5.097   3.849   1.252   5.323   4.071   1.252   0.000   0.000  171.52  106.18   33.62   72.56    0.00    0.00 -99.000 -99.000 -99.000   0.212   0.172   0.061   0.097   0.078   0.067   0.060   0.054   0.092   0.359   0.407   0.034
   15 133    57  20.50  22.10  13.40 -99.000   4.314   3.338   0.981   6.908   5.928   0.981   0.000   0.000  175.83  113.09   39.55   73.54    0.00    0.00 -99.000 -99.000 -99.000   0.183   0.133   0.045   0.073   0.059   0.051   0.046   0.042   0.071   0.278   0.593   0.036
   15 134    58  18.00  18.60  11.40 -99.000   3.548   2.849   0.703   2.905   2.201   0.703   0.000   0.000  179.38  116.00   41.75   74.25    0.00    0.00 -99.000 -99.000 -99.000   0.141   0.095   0.030   0.049   0.040   0.035   0.033   0.030   0.051   0.199   0.220   0.038
   15 135    59   8.20  15.20   7.70 -99.000   1.483   1.220   0.265   1.594   1.329   0.265   0.000   0.000  180.86  117.59   43.08   74.51    0.00    0.00 -99.000 -99.000 -99.000   0.051   0.036   0.011   0.019   0.015   0.013   0.012   0.011   0.020   0.076   0.133   0.039
   15 136    60  24.30  19.80   5.70 -99.000   4.596   3.821   0.781   1.347   0.566   0.781   0.000   0.000  185.46  118.94   43.65   75.29    0.00    0.00 -99.000 -99.000 -99.000   0.147   0.108   0.033   0.055   0.045   0.039   0.037   0.034   0.058   0.226   0.057   0.040
   15 137    61  17.40  17.80  10.50 -99.000   3.336   2.828   0.512   2.869   2.357   0.512   0.000   0.000  188.80  121.81   46.00   75.80    0.00    0.00 -99.000 -99.000 -99.000   0.097   0.071   0.021   0.035   0.029   0.026   0.024   0.022   0.038   0.148   0.236   0.040
   15 138    62  26.90  23.50   7.30 -99.000   5.399   4.632   0.773   1.686   0.914   0.773   0.000   0.000  194.20  123.49   46.92   76.58    0.00    0.00 -99.000 -99.000 -99.000   0.643   0.080   0.012   0.012   0.007   0.004   0.003   0.002   0.003   0.006   0.091   0.041
   15 139    63  10.60  18.00   9.90 -99.000   2.018   1.755   0.266   3.006   2.741   0.266   0.000   0.000  196.21  126.50   49.66   76.84    0.00    0.00 -99.000 -99.000 -99.000   0.055   0.040   0.012   0.018   0.014   0.012   0.012   0.011   0.019   0.073   0.274   0.042
   15 140    64   8.10  10.00   6.70 -99.000   1.330   1.163   0.168   0.776   0.608   0.168   0.000   0.000  197.54  127.28   50.27   77.01    0.00    0.00 -99.000 -99.000 -99.000   0.038   0.027   0.009   0.012   0.009   0.007   0.007   0.006   0.011   0.042   0.061   0.043
   15 141    65  12.00  12.50   7.00 -99.000   2.054   1.804   0.253   0.371   0.119   0.253   0.000   0.000  199.60  127.65   50.38   77.26    0.00    0.00 -99.000 -99.000 -99.000   0.052   0.039   0.015   0.021   0.015   0.011   0.010   0.009   0.016   0.063   0.012   0.043
   15 142    66  22.00  15.40   4.30 -99.000   3.823   3.375   0.453   0.761   0.308   0.453   0.000   0.000  203.42  128.41   50.69   77.72    0.00    0.00 -99.000 -99.000 -99.000   0.087   0.067   0.024   0.037   0.028   0.023   0.019   0.018   0.031   0.119   0.031   0.043
   15 143    67  15.70  16.60   6.80 -99.000   2.840   2.526   0.318   1.285   0.966   0.318   0.000   0.000  206.26  129.69   51.66   78.03    0.00    0.00 -99.000 -99.000 -99.000   0.063   0.046   0.017   0.025   0.020   0.016   0.014   0.012   0.021   0.083   0.097   0.043
   15 144    68  12.70  15.70   8.60 -99.000   2.306   2.062   0.247   0.995   0.748   0.247   0.000   0.000  208.57  130.69   52.41   78.28    0.00    0.00 -99.000 -99.000 -99.000   0.049   0.035   0.013   0.019   0.015   0.013   0.011   0.010   0.017   0.065   0.075   0.044
   15 145    69  15.80  19.20   9.90 -99.000   3.047   2.730   0.321   0.787   0.466   0.321   0.000   0.000  211.61  131.48   52.87   78.60    0.00    0.00 -99.000 -99.000 -99.000   0.062   0.045   0.017   0.025   0.020   0.017   0.015   0.013   0.022   0.085   0.047   0.044
   15 146    70  13.10  15.10   8.10 -99.000   2.344   2.107   0.241   1.081   0.840   0.241   0.000   0.000  213.96  132.56   53.71   78.84    0.00    0.00 -99.000 -99.000 -99.000   0.045   0.034   0.012   0.019   0.015   0.013   0.011   0.010   0.017   0.066   0.084   0.044
   15 147    71  17.30  14.00   4.50 -99.000   2.936   2.644   0.296   0.728   0.431   0.296   0.000   0.000  216.89  133.28   54.15   79.14    0.00    0.00 -99.000 -99.000 -99.000   0.054   0.041   0.015   0.023   0.019   0.016   0.014   0.012   0.021   0.082   0.043   0.045
   15 148    72  27.80  20.30   3.50 -99.000   5.123   4.626   0.504   1.070   0.566   0.504   0.000   0.000  222.02  134.35   54.71   79.64    0.00    0.00 -99.000 -99.000 -99.000   0.090   0.070   0.025   0.039   0.032   0.027   0.024   0.021   0.036   0.140   0.057   0.045
   15 149    73  21.70  23.40   7.80 -99.000   4.331   3.929   0.408   2.149   1.741   0.408   0.000   0.000  226.35  136.50   56.45   80.05    0.00    0.00 -99.000 -99.000 -99.000   0.072   0.057   0.020   0.032   0.026   0.022   0.019   0.017   0.029   0.114   0.174   0.045
   15 150    74  17.20  18.40  11.50 -99.000   3.318   3.019   0.303   1.909   1.606   0.303   0.000   0.000  229.66  138.41   58.06   80.35    0.00    0.00 -99.000 -99.000 -99.000   0.052   0.042   0.015   0.024   0.019   0.016   0.014   0.013   0.022   0.086   0.161   0.046
   15 151    75  22.00  21.20   9.60 -99.000   4.329   3.949   0.386   0.954   0.568   0.386   0.000   0.000  233.99  139.36   58.63   80.74    0.00    0.00 -99.000 -99.000 -99.000   0.066   0.053   0.019   0.030   0.024   0.021   0.018   0.016   0.028   0.110   0.057   0.046
   15 152    76  21.50  26.10  11.90 -99.000   4.587   4.196   0.396   1.573   1.177   0.396   0.000   0.000  238.58  140.94   59.80   81.14    0.00    0.00 -99.000 -99.000 -99.000   0.067   0.054   0.019   0.031   0.025   0.021   0.019   0.017   0.029   0.114   0.118   0.046
   15 153    77  23.00  25.70  13.80 -99.000   4.957   4.546   0.416   2.105   1.689   0.416   0.000   0.000  243.54  143.04   61.49   81.55    0.00    0.00 -99.000 -99.000 -99.000   0.070   0.057   0.020   0.032   0.026   0.022   0.020   0.018   0.031   0.120   0.169   0.047
   15 154    78  27.70  28.40  12.50 -99.000   6.104   5.575   0.536   2.848   2.312   0.536   0.000   0.000  249.64  145.89   63.80   82.09    0.00    0.00 -99.000 -99.000 -99.000   0.088   0.072   0.025   0.042   0.034   0.029   0.026   0.023   0.040   0.157   0.231   0.047
   15 155    79  28.80  26.70  12.60 -99.000   6.224   5.682   0.548   5.093   4.544   0.548   0.000   0.000  255.87  150.98   68.35   82.63    0.00    0.00 -99.000 -99.000 -99.000   0.441   0.063   0.011   0.011   0.006   0.004   0.003   0.002   0.003   0.005   0.454   0.048
   15 156    80  28.80  28.10  15.40 -99.000   6.463   5.917   0.552   5.432   4.879   0.552   0.000   0.000  262.33  156.41   73.23   83.19    0.00    0.00 -99.000 -99.000 -99.000   0.435   0.069   0.012   0.013   0.007   0.004   0.003   0.002   0.003   0.006   0.488   0.049
   15 157    81  25.40  30.30  13.20 -99.000   5.743   5.280   0.468   5.709   5.240   0.468   0.000   0.000  268.07  162.12   78.47   83.66    0.00    0.00 -99.000 -99.000 -99.000   0.380   0.051   0.009   0.009   0.005   0.003   0.002   0.002   0.002   0.005   0.524   0.044
   15 158    82  24.00  26.90  16.00 -99.000   5.333   4.921   0.417   6.950   6.533   0.417   0.000   0.000  273.40  169.07   85.00   84.07    0.00    0.00 -99.000 -99.000 -99.000   0.348   0.040   0.007   0.007   0.004   0.003   0.002   0.001   0.002   0.004   0.653   0.052
   15 159    83   8.20  20.10  12.20 -99.000   1.624   1.493   0.134   4.434   4.301   0.134   0.000   0.000  275.03  173.51   89.30   84.21    0.00    0.00 -99.000 -99.000 -99.000   0.027   0.018   0.006   0.009   0.007   0.006   0.006   0.006   0.010   0.039   0.430   0.053
   15 160    84   6.40  13.40  11.20 -99.000   1.148   1.054   0.096   1.500   1.403   0.096   0.000   0.000  276.18  175.01   90.70   84.30    0.00    0.00 -99.000 -99.000 -99.000   0.021   0.015   0.004   0.006   0.005   0.004   0.004   0.004   0.007   0.027   0.140   0.054
   15 161    85   9.80  18.20  11.20 -99.000   1.880   1.723   0.160   0.410   0.251   0.160   0.000   0.000  278.06  175.42   90.96   84.46    0.00    0.00 -99.000 -99.000 -99.000   0.032   0.024   0.008   0.010   0.008   0.007   0.007   0.006   0.011   0.046   0.025   0.054
   15 162    86  16.90  22.40  14.20 -99.000   3.513   3.215   0.302   1.594   1.291   0.302   0.000   0.000  281.57  177.01   92.25   84.76    0.00    0.00 -99.000 -99.000 -99.000   0.059   0.045   0.015   0.021   0.015   0.014   0.013   0.012   0.022   0.088   0.129   0.054
   15 163    87  28.20  28.90  12.90 -99.000   6.273   5.731   0.549   3.168   2.619   0.549   0.000   0.000  287.84  180.18   94.87   85.31    0.00    0.00 -99.000 -99.000 -99.000   0.104   0.081   0.028   0.038   0.027   0.025   0.023   0.022   0.040   0.161   0.262   0.054
   15 164    88  20.20  25.50  14.70 -99.000   4.379   3.993   0.391   7.818   7.427   0.391   0.000   0.000  292.22  188.00  102.29   85.70    0.00    0.00 -99.000 -99.000 -99.000   0.084   0.057   0.020   0.026   0.018   0.017   0.016   0.015   0.027   0.110   0.743   0.055
   15 165    89  23.60  24.90  15.30 -99.000   5.111   4.652   0.464   4.561   4.097   0.464   0.000   0.000  297.33  192.56  106.39   86.17    0.00    0.00 -99.000 -99.000 -99.000   0.102   0.069   0.024   0.031   0.021   0.019   0.018   0.018   0.032   0.132   0.410   0.055
   15 166    90   9.00  16.60  13.60 -99.000   1.728   1.570   0.160   4.188   4.028   0.160   0.000   0.000  299.06  196.75  110.42   86.33    0.00    0.00 -99.000 -99.000 -99.000   0.035   0.026   0.009   0.011   0.007   0.006   0.006   0.006   0.011   0.043   0.403   0.054
   15 167    91  18.90  19.00  11.40 -99.000   3.679   3.338   0.345   0.881   0.536   0.345   0.000   0.000  302.74  197.63  110.95   86.67    0.00    0.00 -99.000 -99.000 -99.000   0.071   0.055   0.019   0.027   0.018   0.013   0.013   0.012   0.023   0.094   0.054   0.057
   15 168    92  21.70  19.50  10.10 -99.000   4.201   3.807   0.400   2.609   2.209   0.400   0.000   0.000  306.94  200.24  113.16   87.07    0.00    0.00 -99.000 -99.000 -99.000   0.077   0.060   0.021   0.032   0.025   0.018   0.015   0.015   0.027   0.111   0.221   0.057
   15 169    93   8.60  17.20   9.30 -99.000   1.601   1.449   0.155   3.074   2.920   0.155   0.000   0.000  308.54  203.31  116.08   87.23    0.00    0.00 -99.000 -99.000 -99.000   0.033   0.024   0.008   0.012   0.009   0.007   0.005   0.005   0.010   0.041   0.292   0.057
   15 170    94  15.30  15.50  10.90 -99.000   2.828   2.556   0.276   1.503   1.227   0.276   0.000   0.000  311.37  204.81  117.31   87.50    0.00    0.00 -99.000 -99.000 -99.000   0.057   0.041   0.014   0.021   0.017   0.013   0.011   0.010   0.018   0.074   0.123   0.058
   15 171    95  14.50  15.10   9.40 -99.000   2.626   2.370   0.260   1.263   1.003   0.260   0.000   0.000  314.00  206.08  118.31   87.76    0.00    0.00 -99.000 -99.000 -99.000   0.051   0.038   0.014   0.020   0.016   0.014   0.011   0.009   0.017   0.071   0.100   0.058
   15 172    96  14.20  17.60   9.50 -99.000   2.666   2.403   0.267   1.388   1.121   0.267   0.000   0.000  316.66  207.46  119.43   88.03    0.00    0.00 -99.000 -99.000 -99.000   0.051   0.039   0.014   0.021   0.017   0.014   0.011   0.009   0.017   0.073   0.112   0.058
   15 173    97  14.10  20.50  11.90 -99.000   2.813   2.531   0.285   2.041   1.756   0.285   0.000   0.000  319.48  209.50  121.19   88.32    0.00    0.00 -99.000 -99.000 -99.000   0.053   0.041   0.014   0.023   0.018   0.015   0.013   0.010   0.019   0.079   0.176   0.059
   15 174    98  19.10  16.60   9.70 -99.000   3.543   3.188   0.359   2.422   2.064   0.359   0.000   0.000  323.02  211.93  123.25   88.68    0.00    0.00 -99.000 -99.000 -99.000   0.069   0.051   0.018   0.028   0.022   0.019   0.016   0.013   0.023   0.099   0.206   0.059
   15 175    99  22.70  19.80   8.00 -99.000   4.336   3.890   0.452   2.184   1.732   0.452   0.000   0.000  327.36  214.11  124.98   89.13    0.00    0.00 -99.000 -99.000 -99.000   0.086   0.064   0.022   0.035   0.028   0.024   0.021   0.016   0.030   0.126   0.173   0.059
   15 176   100  22.80  21.30   6.40 -99.000   4.381   3.920   0.467   4.014   3.548   0.467   0.000   0.000  331.74  218.12  128.53   89.59    0.00    0.00 -99.000 -99.000 -99.000   0.086   0.066   0.023   0.037   0.029   0.025   0.022   0.017   0.031   0.131   0.355   0.059
   15 177   101  24.60  24.50   8.50 -99.000   5.022   4.480   0.548   5.068   4.520   0.548   0.000   0.000  336.76  223.19  133.05   90.14    0.00    0.00 -99.000 -99.000 -99.000   0.448   0.060   0.010   0.010   0.005   0.003   0.002   0.001   0.002   0.004   0.452   0.059
   15 178   102  13.00  22.90  13.80 -99.000   2.719   2.418   0.304   6.122   5.818   0.304   0.000   0.000  339.48  229.31  138.87   90.44    0.00    0.00 -99.000 -99.000 -99.000   0.246   0.034   0.006   0.006   0.003   0.002   0.001   0.001   0.001   0.003   0.582   0.059
   15 179   103  24.90  22.70  13.00 -99.000   5.163   4.576   0.593   2.986   2.393   0.593   0.000   0.000  344.64  232.30  141.26   91.04    0.00    0.00 -99.000 -99.000 -99.000   0.479   0.068   0.011   0.012   0.006   0.004   0.003   0.002   0.002   0.005   0.239   0.060
   15 180   104  23.30  25.20  12.50 -99.000   4.964   4.381   0.588   4.329   3.741   0.588   0.000   0.000  349.60  236.63  145.00   91.63    0.00    0.00 -99.000 -99.000 -99.000   0.468   0.071   0.012   0.013   0.007   0.004   0.003   0.002   0.003   0.006   0.374   0.059
   15 181   105  27.00  29.00  12.20 -99.000   6.006   5.279   0.733   5.567   4.834   0.733   0.000   0.000  355.61  242.20  149.84   92.36    0.00    0.00 -99.000 -99.000 -99.000   0.572   0.095   0.016   0.017   0.009   0.006   0.004   0.002   0.004   0.008   0.483   0.060
   15 182   106  28.90  28.60  13.50 -99.000   6.465   5.656   0.815   7.841   7.159   0.683   0.000   0.000  362.08  250.04  157.00   93.04    0.00    0.00 -99.000 -99.000 -99.000   0.518   0.097   0.016   0.017   0.009   0.006   0.004   0.003   0.004   0.008   0.716   0.051
   15 183   107  29.10  29.70  14.80 -99.000   6.660   5.797   0.869   7.385   6.797   0.588   0.000   0.000  368.74  257.42  163.79   93.63    0.00    0.00 -99.000 -99.000 -99.000   0.433   0.091   0.015   0.016   0.009   0.006   0.004   0.003   0.004   0.008   0.680   0.049
   15 184   108  23.10  31.90  14.10 -99.000   5.393   4.669   0.729   7.308   6.788   0.520   0.000   0.000  374.13  264.73  170.58   94.15    0.00    0.00 -99.000 -99.000 -99.000   0.373   0.086   0.014   0.016   0.008   0.005   0.004   0.002   0.004   0.008   0.679   0.049
   15 185   109  27.30  32.90  16.20 -99.000   6.547   5.634   0.918   6.566   6.096   0.471   0.000   0.000  380.68  271.30  176.68   94.62    0.00    0.00 -99.000 -99.000 -99.000   0.332   0.081   0.013   0.015   0.008   0.005   0.004   0.002   0.004   0.008   0.610   0.045
   15 186   110  27.80  33.40  17.60 -99.000   6.770   5.824   0.951   6.663   6.229   0.434   0.000   0.000  387.45  277.96  182.90   95.05    0.00    0.00 -99.000 -99.000 -99.000   0.302   0.076   0.012   0.014   0.008   0.005   0.004   0.002   0.003   0.008   0.623   0.034
   15 187   111  23.90  28.80  17.60 -99.000   5.533   4.757   0.781   6.331   5.895   0.436   0.000   0.000  392.98  284.29  188.80   95.49    0.00    0.00 -99.000 -99.000 -99.000   0.311   0.072   0.011   0.013   0.007   0.005   0.003   0.002   0.003   0.008   0.590   0.025
   15 188   112  26.60  33.80  16.40 -99.000   6.452   5.539   0.919   4.830   4.191   0.640   0.000   0.000  399.43  289.12  192.99   96.13    0.00    0.00 -99.000 -99.000 -99.000   0.520   0.068   0.010   0.013   0.007   0.004   0.003   0.002   0.003   0.008   0.419   0.019
   15 189   113  16.00  21.00  13.80 -99.000   3.283   2.814   0.473   6.801   6.328   0.473   0.000   0.000  402.71  295.92  199.32   96.60    0.00    0.00 -99.000 -99.000 -99.000   0.417   0.033   0.004   0.006   0.003   0.002   0.001   0.001   0.002   0.004   0.633   0.026
   15 190   114  17.20  19.10   8.70 -99.000   3.299   2.821   0.482   2.340   1.857   0.482   0.000   0.000  406.01  298.26  201.18   97.08    0.00    0.00 -99.000 -99.000 -99.000   0.116   0.054   0.013   0.027   0.022   0.020   0.019   0.016   0.032   0.164   0.186   0.025
   15 191   115  29.60  22.40   7.30 -99.000   5.861   4.999   0.868   3.233   2.364   0.868   0.000   0.000  411.87  301.49  203.54   97.95    0.00    0.00 -99.000 -99.000 -99.000   0.202   0.099   0.024   0.049   0.040   0.036   0.034   0.029   0.058   0.299   0.236   0.025
   15 192   116  26.20  28.30   8.30 -99.000   5.638   4.798   0.845   6.067   5.222   0.845   0.000   0.000  417.51  307.56  208.76   98.80    0.00    0.00 -99.000 -99.000 -99.000   0.741   0.064   0.008   0.010   0.005   0.003   0.003   0.002   0.003   0.007   0.522   0.023
   15 193   117  24.30  27.70  13.30 -99.000   5.398   4.583   0.821   8.063   7.269   0.794   0.000   0.000  422.91  315.62  216.03   99.59    0.00    0.00 -99.000 -99.000 -99.000   0.678   0.070   0.009   0.011   0.006   0.004   0.003   0.002   0.003   0.008   0.727   0.020
   15 194   118  10.70  21.00  15.80 -99.000   2.234   1.890   0.346   5.645   5.298   0.346   0.000   0.000  425.14  321.27  221.33   99.94    0.00    0.00 -99.000 -99.000 -99.000   0.288   0.035   0.005   0.006   0.003   0.002   0.001   0.001   0.002   0.004   0.530   0.009
[...]
   15 167    91  18.90  19.00  11.40 -99.000   3.910   2.338   1.575   1.836   0.261   1.575   0.000   0.000  311.94  170.53   43.49  127.04    0.00    0.00 -99.000 -99.000 -99.000   0.313   0.242   0.083   0.124   0.095   0.079   0.066   0.060   0.104   0.410   0.026   0.028
   15 168    92  21.70  19.50  10.10 -99.000   4.453   2.647   1.810   2.991   1.182   1.810   0.000   0.000  316.39  173.52   44.67  128.85    0.00    0.00 -99.000 -99.000 -99.000   0.337   0.265   0.091   0.141   0.111   0.093   0.082   0.073   0.126   0.490   0.118   0.028
   15 169    93   8.60  17.20   9.30 -99.000   1.695   1.002   0.695   2.300   1.605   0.695   0.000   0.000  318.09  175.82   46.28  129.55    0.00    0.00 -99.000 -99.000 -99.000   0.142   0.103   0.036   0.053   0.041   0.035   0.030   0.027   0.046   0.181   0.160   0.029
   15 170    94  15.30  15.50  10.90 -99.000   3.010   1.769   1.243   1.923   0.680   1.243   0.000   0.000  321.10  177.75   46.96  130.79    0.00    0.00 -99.000 -99.000 -99.000   0.250   0.181   0.063   0.094   0.074   0.063   0.055   0.049   0.084   0.329   0.068   0.029
   15 171    95  14.50  15.10   9.40 -99.000   2.787   1.630   1.159   1.761   0.602   1.159   0.000   0.000  323.88  179.51   47.56  131.95    0.00    0.00 -99.000 -99.000 -99.000   0.224   0.167   0.060   0.089   0.071   0.059   0.052   0.046   0.080   0.311   0.060   0.029
   15 172    96  14.20  17.60   9.50 -99.000   2.828   1.646   1.184   1.860   0.676   1.184   0.000   0.000  326.71  181.37   48.24  133.13    0.00    0.00 -99.000 -99.000 -99.000   0.222   0.168   0.061   0.093   0.073   0.062   0.054   0.048   0.082   0.321   0.068   0.030
   15 173    97  14.10  20.50  11.90 -99.000   2.982   1.728   1.257   2.316   1.059   1.257   0.000   0.000  329.69  183.69   49.29  134.39    0.00    0.00 -99.000 -99.000 -99.000   0.228   0.177   0.063   0.098   0.078   0.067   0.058   0.052   0.089   0.347   0.106   0.030
   15 174    98  19.10  16.60   9.70 -99.000   3.753   2.175   1.582   2.829   1.247   1.582   0.000   0.000  333.45  186.51   50.54  135.97    0.00    0.00 -99.000 -99.000 -99.000   0.296   0.221   0.078   0.122   0.098   0.083   0.073   0.065   0.111   0.435   0.125   0.030
   15 175    99  22.70  19.80   8.00 -99.000   4.603   2.643   1.964   3.016   1.051   1.964   0.000   0.000  338.05  189.53   51.59  137.94    0.00    0.00 -99.000 -99.000 -99.000   0.364   0.275   0.095   0.152   0.122   0.103   0.091   0.081   0.139   0.543   0.105   0.031
   15 176   100  22.80  21.30   6.40 -99.000   4.645   2.650   1.999   3.270   2.166   1.104   0.000   0.000  342.70  192.80   53.76  139.04    0.00    0.00 -99.000 -99.000 -99.000   0.906   0.119   0.020   0.021   0.011   0.007   0.005   0.003   0.004   0.009   0.217   0.031
   15 177   101  24.60  24.50   8.50 -99.000   5.316   3.011   2.308   3.770   2.784   0.986   0.000   0.000  348.01  196.57   56.54  140.03    0.00    0.00 -99.000 -99.000 -99.000   0.792   0.116   0.020   0.020   0.011   0.007   0.005   0.003   0.004   0.009   0.278   0.031
   15 178   102  13.00  22.90  13.80 -99.000   2.874   1.617   1.259   4.480   3.569   0.911   0.000   0.000  350.89  201.05   60.11  140.94    0.00    0.00 -99.000 -99.000 -99.000   0.722   0.113   0.019   0.020   0.011   0.007   0.005   0.003   0.004   0.009   0.357   0.031
   15 179   103  24.90  22.70  13.00 -99.000   5.454   3.043   2.415   2.293   1.461   0.832   0.000   0.000  356.34  203.34   61.57  141.77    0.00    0.00 -99.000 -99.000 -99.000   0.647   0.109   0.019   0.019   0.010   0.006   0.004   0.003   0.004   0.009   0.146   0.031
   15 180   104  23.30  25.20  12.50 -99.000   5.239   2.896   2.346   3.024   2.273   0.751   0.000   0.000  361.58  206.37   63.85  142.52    0.00    0.00 -99.000 -99.000 -99.000   0.569   0.107   0.019   0.019   0.010   0.006   0.004   0.003   0.004   0.009   0.227   0.029
   15 181   105  27.00  29.00  12.20 -99.000   6.333   3.467   2.869   3.593   2.922   0.671   0.000   0.000  367.91  209.96   66.77  143.19    0.00    0.00 -99.000 -99.000 -99.000   0.493   0.104   0.018   0.019   0.010   0.006   0.004   0.003   0.004   0.009   0.292   0.027
   15 182   106  28.90  28.60  13.50 -99.000   6.811   3.692   3.123   4.904   4.304   0.600   0.000   0.000  374.72  214.86   71.07  143.79    0.00    0.00 -99.000 -99.000 -99.000   0.426   0.101   0.018   0.019   0.010   0.006   0.004   0.003   0.004   0.008   0.430   0.027
   15 183   107  29.10  29.70  14.80 -99.000   7.013   3.759   3.258   4.598   4.062   0.536   0.000   0.000  381.74  219.46   75.13  144.33    0.00    0.00 -99.000 -99.000 -99.000   0.369   0.096   0.017   0.018   0.010   0.006   0.004   0.003   0.004   0.008   0.406   0.027
   15 184   108  23.10  31.90  14.10 -99.000   5.678   3.008   2.673   4.522   4.032   0.490   0.000   0.000  387.41  223.98   79.17  144.82    0.00    0.00 -99.000 -99.000 -99.000   0.329   0.092   0.017   0.017   0.009   0.006   0.004   0.003   0.004   0.008   0.403   0.027
   15 185   109  27.30  32.90  16.20 -99.000   6.892   3.606   3.290   4.033   3.579   0.454   0.000   0.000  394.31  228.02   82.74  145.27    0.00    0.00 -99.000 -99.000 -99.000   0.300   0.087   0.016   0.017   0.009   0.006   0.004   0.003   0.004   0.008   0.358   0.027
   15 186   110  27.80  33.40  17.60 -99.000   7.124   3.725   3.402   4.004   3.582   0.421   0.000   0.000  401.43  232.02   86.33  145.69    0.00    0.00 -99.000 -99.000 -99.000   0.273   0.083   0.015   0.016   0.009   0.006   0.004   0.003   0.004   0.008   0.358   0.027
   15 187   111  23.90  28.80  17.60 -99.000   5.820   3.038   2.786   3.801   3.374   0.427   0.000   0.000  407.25  235.82   89.70  146.12    0.00    0.00 -99.000 -99.000 -99.000   0.284   0.079   0.015   0.016   0.009   0.006   0.004   0.003   0.004   0.008   0.337   0.025
   15 188   112  26.60  33.80  16.40 -99.000   6.794   3.532   3.265   3.016   2.382   0.634   0.000   0.000  414.04  238.84   92.08  146.75    0.00    0.00 -99.000 -99.000 -99.000   0.496   0.075   0.014   0.015   0.008   0.006   0.004   0.003   0.004   0.008   0.238   0.024
   15 189   113  16.00  21.00  13.80 -99.000   3.478   1.801   1.679   4.590   3.571   1.019   0.000   0.000  417.52  243.43   95.65  147.77    0.00    0.00 -99.000 -99.000 -99.000   0.879   0.078   0.014   0.015   0.008   0.006   0.004   0.003   0.004   0.008   0.357   0.028
   15 190   114  17.20  19.10   8.70 -99.000   3.515   1.808   1.709   2.747   1.038   1.709   0.000   0.000  421.04  246.17   96.69  149.48    0.00    0.00 -99.000 -99.000 -99.000   0.371   0.187   0.062   0.106   0.090   0.084   0.078   0.072   0.125   0.535   0.104   0.029
   15 191   115  29.60  22.40   7.30 -99.000   6.238   3.194   3.048   4.359   1.311   3.048   0.000   0.000  427.27  250.53   98.00  152.53    0.00    0.00 -99.000 -99.000 -99.000   0.638   0.336   0.110   0.190   0.161   0.151   0.140   0.130   0.225   0.968   0.131   0.028
   15 192   116  26.20  28.30   8.30 -99.000   5.993   3.055   2.942   3.874   2.893   0.981   0.000   0.000  433.27  254.41  100.90  153.51    0.00    0.00 -99.000 -99.000 -99.000   0.844   0.078   0.013   0.014   0.008   0.005   0.004   0.003   0.004   0.008   0.289   0.025
   15 193   117  24.30  27.70  13.30 -99.000   5.732   2.907   2.828   4.920   4.054   0.866   0.000   0.000  439.00  259.33  104.95  154.38    0.00    0.00 -99.000 -99.000 -99.000   0.733   0.075   0.012   0.014   0.008   0.005   0.004   0.003   0.004   0.008   0.405   0.023
   15 194   118  10.70  21.00  15.80 -99.000   2.369   1.193   1.177   3.768   2.983   0.785   0.000   0.000  441.37  263.10  107.93  155.16    0.00    0.00 -99.000 -99.000 -99.000   0.657   0.072   0.012   0.013   0.007   0.005   0.004   0.003   0.004   0.008   0.298   0.021
   15 195   119  16.40  25.80  15.40 -99.000   3.839   1.916   1.926   1.343   0.616   0.727   0.000   0.000  445.21  264.44  108.55  155.89    0.00    0.00 -99.000 -99.000 -99.000   0.602   0.070   0.011   0.013   0.007   0.005   0.004   0.003   0.004   0.008   0.062   0.020
   15 196   120  23.80  27.40  16.00 -99.000   5.699   2.818   2.884   2.363   1.699   0.663   0.000   0.000  450.91  266.80  110.25  156.55    0.00    0.00 -99.000 -99.000 -99.000   0.540   0.069   0.011   0.013   0.007   0.005   0.004   0.003   0.004   0.008   0.170   0.016
   15 197   121  26.30  31.10  13.60 -99.000   6.446   3.151   3.299   2.936   2.342   0.594   0.000   0.000  457.35  269.74  112.59  157.15    0.00    0.00 -99.000 -99.000 -99.000   0.473   0.068   0.011   0.013   0.007   0.005   0.004   0.003   0.004   0.008   0.234   0.015
   15 198   122  23.70  33.90  15.30 -99.000   6.065   2.924   3.144   4.094   3.564   0.530   0.000   0.000  463.42  273.83  116.15  157.68    0.00    0.00 -99.000 -99.000 -99.000   0.412   0.066   0.011   0.012   0.007   0.005   0.004   0.003   0.004   0.008   0.356   0.014
   15 199   123  16.30  29.10  14.80 -99.000   3.939   1.871   2.070   3.778   3.287   0.491   0.000   0.000  467.36  277.61  119.44  158.17    0.00    0.00 -99.000 -99.000 -99.000   0.376   0.063   0.010   0.012   0.007   0.005   0.004   0.003   0.004   0.008   0.329   0.013
   15 200   124  16.90  28.80  16.00 -99.000   4.114   1.909   2.207   2.567   2.078   0.490   0.000   0.000  471.47  280.18  121.52  158.66    0.00    0.00 -99.000 -99.000 -99.000   0.379   0.061   0.010   0.011   0.006   0.005   0.003   0.003   0.004   0.008   0.208   0.012
   15 201   125  19.90  28.50  18.10 -99.000   4.913   2.237   2.678   2.347   1.874   0.473   0.000   0.000  476.38  282.52  123.39  159.13    0.00    0.00 -99.000 -99.000 -99.000   0.364   0.060   0.009   0.011   0.006   0.005   0.003   0.003   0.004   0.008   0.187   0.012
   15 202   126  26.10  32.00  16.50 -99.000   6.624   2.952   3.675   2.111   1.676   0.435   0.000   0.000  483.01  284.63  125.07  159.57    0.00    0.00 -99.000 -99.000 -99.000   0.328   0.058   0.009   0.011   0.006   0.005   0.003   0.003   0.004   0.008   0.168   0.011
   15 203   127  25.00  34.30  15.60 -99.000   6.469   2.811   3.660   3.077   2.673   0.404   0.000   0.000  489.47  287.71  127.74  159.97    0.00    0.00 -99.000 -99.000 -99.000   0.299   0.057   0.009   0.011   0.006   0.005   0.003   0.003   0.003   0.008   0.267   0.011
   15 204   128  12.40  24.50  18.30 -99.000   2.936   1.240   1.698   3.241   2.803   0.437   0.000   0.000  492.41  290.95  130.54  160.41    0.00    0.00 -99.000 -99.000 -99.000   0.335   0.056   0.009   0.011   0.006   0.004   0.003   0.003   0.003   0.008   0.280   0.010
   15 205   129  21.90  29.10  14.80 -99.000   5.356   2.150   3.208   1.108   0.640   0.468   0.000   0.000  497.77  292.06  131.19  160.87    0.00    0.00 -99.000 -99.000 -99.000   0.367   0.054   0.009   0.010   0.006   0.004   0.003   0.003   0.003   0.008   0.064   0.009
   15 206   130  21.40  25.00  12.60 -99.000   4.905   1.905   3.002   2.371   1.930   0.441   0.000   0.000  502.67  294.43  133.12  161.32    0.00    0.00 -99.000 -99.000 -99.000   0.342   0.054   0.009   0.010   0.006   0.004   0.003   0.003   0.003   0.008   0.193   0.009
   15 207   131  26.60  23.10   8.00 -99.000   5.737   2.146   3.593   1.937   1.478   0.459   0.000   0.000  508.41  296.37  134.59  161.77    0.00    0.00 -99.000 -99.000 -99.000   0.360   0.053   0.008   0.010   0.006   0.004   0.003   0.003   0.003   0.008   0.148   0.009
   15 208   132  19.60  23.80  12.90 -99.000   4.461   1.610   2.853   2.342   1.719   0.622   0.000   0.000  512.87  298.71  136.31  162.40    0.00    0.00 -99.000 -99.000 -99.000   0.525   0.052   0.008   0.010   0.006   0.004   0.003   0.002   0.003   0.008   0.172   0.008
   15 209   133  17.30  22.80  12.10 -99.000   3.902   1.363   2.540   1.887   1.103   0.784   0.000   0.000  516.77  300.60  137.42  163.18    0.00    0.00 -99.000 -99.000 -99.000   0.688   0.051   0.008   0.010   0.005   0.004   0.003   0.002   0.003   0.008   0.110   0.012
   15 210   134  12.70  20.50   9.50 -99.000   2.728   0.914   1.815   1.716   0.913   0.802   0.000   0.000  519.50  302.31  138.33  163.98    0.00    0.00 -99.000 -99.000 -99.000   0.707   0.051   0.008   0.010   0.005   0.004   0.003   0.002   0.003   0.008   0.091   0.012
   15 211   135  21.40  21.80   7.50 -99.000   4.607   1.477   3.132   1.413   0.649   0.764   0.000   0.000  524.11  303.73  138.98  164.75    0.00    0.00 -99.000 -99.000 -99.000   0.670   0.050   0.008   0.010   0.005   0.004   0.003   0.002   0.003   0.008   0.065   0.011
   15 212   136  25.90  23.50   9.30 -99.000   5.791   1.781   4.012   1.794   1.103   0.690   0.000   0.000  529.90  305.52  140.08  165.44    0.00    0.00 -99.000 -99.000 -99.000   0.596   0.050   0.008   0.010   0.005   0.004   0.003   0.002   0.003   0.008   0.110   0.011
   15 213   137  10.30  20.70  13.20 -99.000   2.296   0.675   1.622   1.890   1.276   0.614   0.000   0.000  532.19  307.41  141.36  166.05    0.00    0.00 -99.000 -99.000 -99.000   0.520   0.050   0.008   0.010   0.005   0.004   0.003   0.002   0.003   0.008   0.128   0.008
   15 214   138  19.00  25.10  12.90 -99.000   4.465   1.243   3.224   0.909   0.361   0.548   0.000   0.000  536.66  308.32  141.72  166.60    0.00    0.00 -99.000 -99.000 -99.000   0.455   0.049   0.008   0.010   0.005   0.004   0.003   0.002   0.003   0.008   0.036   0.007
   15 215   139  26.40  28.30  11.20 -99.000   6.370   1.665   4.708   1.375   0.868   0.507   0.000   0.000  543.03  309.69  142.59  167.11    0.00    0.00 -99.000 -99.000 -99.000   0.415   0.049   0.008   0.010   0.005   0.004   0.003   0.002   0.003   0.008   0.087   0.007
   15 216   140  21.20  31.60  12.10 -99.000   5.362   1.292   4.071   1.826   1.364   0.462   0.000   0.000  548.39  311.52  143.95  167.57    0.00    0.00 -99.000 -99.000 -99.000   0.370   0.049   0.008   0.010   0.005   0.004   0.003   0.002   0.003   0.008   0.136   0.007
   15 217   141  24.60  29.90  13.60 -99.000   6.185   1.353   4.833   1.639   1.217   0.422   0.000   0.000  554.58  313.16  145.17  167.99    0.00    0.00 -99.000 -99.000 -99.000   0.332   0.048   0.008   0.009   0.005   0.004   0.003   0.002   0.003   0.008   0.122   0.006
   15 218   142  25.00  33.60  13.20 -99.000   6.556   1.240   5.317   1.370   0.978   0.392   0.000   0.000  561.13  314.53  146.14  168.38    0.00    0.00 -99.000 -99.000 -99.000   0.302   0.048   0.008   0.009   0.005   0.004   0.003   0.002   0.003   0.008   0.098   0.006
   15 219   143  25.30  35.20  14.30 -99.000   6.889   1.113   5.777   1.347   0.983   0.364   0.000   0.000  568.02  315.87  147.13  168.75    0.00    0.00 -99.000 -99.000 -99.000   0.275   0.047   0.008   0.009   0.005   0.004   0.003   0.002   0.003   0.008   0.098   0.006
   15 220   144  22.50  34.90  15.40 -99.000   6.147   0.643   5.505   1.038   0.613   0.424   0.000   0.000  574.17  316.91  147.74  169.17    0.00    0.00 -99.000 -99.000 -99.000   0.335   0.047   0.008   0.009   0.005   0.004   0.003   0.002   0.003   0.008   0.061   0.005
   15 221   145  22.20  33.30  16.10 -99.000   6.109   0.120   5.989   0.578   0.099   0.479   0.000   0.000  580.28  317.49  147.84  169.65    0.00    0.00 -99.000 -99.000 -99.000   0.390   0.047   0.008   0.009   0.005   0.004   0.003   0.002   0.003   0.008   0.010   0.005
   15 222   146  18.70  30.00  17.80 -99.000   5.032   0.000   5.032   0.460   0.017   0.443   0.000   0.000  585.31  317.95  147.86  170.09    0.00    0.00 -99.000 -99.000 -99.000   0.355   0.047   0.008   0.009   0.005   0.004   0.003   0.002   0.003   0.008   0.002   0.000
   15 223   147  19.70  31.90  16.30 -99.000   5.346   0.000   5.346   0.422   0.011   0.411   0.000   0.000  590.66  318.37  147.87  170.50    0.00    0.00 -99.000 -99.000 -99.000   0.323   0.046   0.008   0.009   0.005   0.004   0.003   0.002   0.003   0.008   0.001   0.000
   15 224   148  21.10  33.40  14.20 -99.000   5.725   0.000   5.725   0.397   0.015   0.382   0.000   0.000  596.38  318.77  147.88  170.89    0.00    0.00 -99.000 -99.000 -99.000   0.294   0.046   0.008   0.009   0.005   0.004   0.003   0.002   0.003   0.008   0.001   0.000
   15 225   149  21.70  33.80  14.50 -99.000   5.919   0.000   5.919   0.370   0.015   0.355   0.000   0.000  602.30  319.14  147.90  171.24    0.00    0.00 -99.000 -99.000 -99.000   0.268   0.046   0.008   0.009   0.005   0.004   0.003   0.002   0.003   0.008   0.001   0.000
   15 226   150  19.40  32.00  17.30 -99.000   5.289   0.000   5.289   0.556   0.015   0.542   0.000   0.000  607.59  319.70  147.91  171.78    0.00    0.00 -99.000 -99.000 -99.000   0.454   0.046   0.008   0.009   0.005   0.004   0.003   0.002   0.003   0.008   0.001   0.000
   15 227   151  15.30  25.70  15.90 -99.000   3.912   0.000   3.912   0.758   0.015   0.743   0.000   0.000  611.50  320.45  147.93  172.53    0.00    0.00 -99.000 -99.000 -99.000   0.656   0.045   0.008   0.009   0.005   0.004   0.003   0.002   0.003   0.008   0.001   0.000
   15 228   152   6.50  18.90  14.80 -99.000   1.514   0.000   1.514   0.966   0.015   0.951   0.000   0.000  613.02  321.42  147.94  173.48    0.00    0.00 -99.000 -99.000 -99.000   0.860   0.050   0.008   0.009   0.005   0.004   0.003   0.002   0.003   0.008   0.001   0.000
   15 229   153   6.90  15.80  12.90 -99.000   1.544   0.000   1.544   1.559   0.015   1.544   0.000   0.000  614.56  322.98  147.96  175.02    0.00    0.00 -99.000 -99.000 -99.000   0.436   0.144   0.038   0.069   0.058   0.056   0.057   0.058   0.103   0.524   0.001   0.000
   15 230   154  17.90  21.50  11.30 -99.000   4.288   0.000   4.288   4.303   0.015   4.288   0.000   0.000  618.85  327.28  147.97  179.31    0.00    0.00 -99.000 -99.000 -99.000   1.139   0.471   0.105   0.191   0.161   0.155   0.159   0.161   0.286   1.459   0.001   0.000
   15 231   155  10.30  20.00  13.40 -99.000   2.439   0.000   2.439   2.454   0.015   2.439   0.000   0.000  621.29  329.74  147.99  181.75    0.00    0.00 -99.000 -99.000 -99.000   0.597   0.283   0.060   0.110   0.093   0.090   0.092   0.094   0.167   0.853   0.001   0.000
   15 232   156  11.70  20.60  12.00 -99.000   2.751   0.000   2.751   1.001   0.015   0.986   0.000   0.000  624.04  330.74  148.00  182.73    0.00    0.00 -99.000 -99.000 -99.000   0.873   0.072   0.008   0.009   0.005   0.003   0.003   0.002   0.003   0.008   0.001   0.000
   15 233   157  16.90  21.20   9.70 -99.000   3.912   0.000   3.912   0.927   0.015   0.912   0.000   0.000  627.95  331.66  148.02  183.65    0.00    0.00 -99.000 -99.000 -99.000   0.800   0.072   0.008   0.009   0.005   0.003   0.003   0.002   0.003   0.008   0.001   0.000
   15 234   158  21.10  24.90   8.20 -99.000   5.042   0.000   5.042   0.854   0.015   0.840   0.000   0.000  632.99  332.52  148.03  184.49    0.00    0.00 -99.000 -99.000 -99.000   0.728   0.071   0.008   0.009   0.005   0.003   0.003   0.002   0.003   0.008   0.001   0.000
   15 235   159  20.90  27.40  11.80 -99.000   5.289   0.000   5.289   0.892   0.015   0.877   0.000   0.000  638.28  333.41  148.05  185.36    0.00    0.00 -99.000 -99.000 -99.000   0.766   0.071   0.008   0.009   0.005   0.003   0.003   0.002   0.003   0.008   0.001   0.000
   15 236   160  16.00  28.70  14.00 -99.000   4.210   0.000   4.210   4.224   0.015   4.210   0.000   0.000  642.49  337.63  148.06  189.57    0.00    0.00 -99.000 -99.000 -99.000   1.074   0.642   0.135   0.172   0.146   0.141   0.145   0.147   0.262   1.345   0.001   0.000
   15 237   161  20.20  21.40   8.80 -99.000   4.738   0.000   4.738   4.753   0.015   4.738   0.000   0.000  647.23  342.39  148.08  194.31    0.00    0.00 -99.000 -99.000 -99.000   1.265   0.853   0.211   0.174   0.148   0.144   0.147   0.150   0.268   1.378   0.001   0.000
