*GHG emissions output file

*DSSAT Cropping System Model Ver. 4.8.5.000 -release  MAR 01, 2026 09:34:20

*RUN   1        : 1                         WHAPS048 TUDU1501    1
 MODEL          : WHAPS048 - Wheat
 EXPERIMENT     : TUDU1501 WH
 DATA PATH      :
 TREATMENT  1   : 1                         WHAPS048
  
!               |---------- Daily (g/ha) ----------|------- Cumulative (kg/ha) --------|---- Cum CO2-equiv kg[CO2eq]/ha ---|
!               Soil CO2  Net CO2      N2O      CH4 Soil CO2  Net CO2      N2O      CH4  Net CO2      N2O      CH4    Total
!                g[C]/ha  g[C]/ha  g[N]/ha  g[C]/ha kg[C]/ha kg[C]/ha kg[N]/ha kg[C]/ha    CO2eq    CO2eq    CO2eq    CO2eq
@YEAR DOY   DAS   CO2GED   CO2END   N2OGED   CH4GED    CO2EC   CO2ENC    N2OEC    CH4EC    CCEQC    NCEQC    MCEQC    TCEQC
   15 077     1    29546    -2375     0.01     0.00       30       -2     0.00     0.00       -9        0        0       -9
   15 078     2    25852    -2000     0.01     0.00       55       -4     0.00     0.00      -16        0        0      -16
   15 079     3    20121    -1281     0.02     0.00       76       -6     0.00     0.00      -21        0        0      -21
   15 080     4    13977     -781     0.02     0.00       89       -6     0.00     0.00      -24        0        0      -24
   15 081     5     9264     -531     0.02     0.00       99       -7     0.00     0.00      -26        0        0      -26
   15 082     6     2670      -31     0.02     0.00      101       -7     0.00     0.00      -26        0        0      -26
   15 083     7      146       94     0.02     0.00      102       -7     0.00     0.00      -25        0        0      -25
   15 084     8      153       63     0.02     0.00      102       -7     0.00     0.00      -25        0        0      -25
   15 085     9     1751       94     0.03     0.00      103       -7     0.00     0.00      -25        0        0      -25
   15 086    10     2967        0     0.03     0.00      106       -7     0.00     0.00      -25        0        0      -25
   15 087    11     5094     -156     0.03     0.00      112       -7     0.00     0.00      -25        0        0      -25
   15 088    12     8135     -344     0.03     0.00      120       -7     0.00     0.00      -27        0        0      -26
   15 089    13    10948     -438     0.04     0.00      131       -8     0.00     0.00      -28        0        0      -28
   15 090    14    10826     -813     0.03     0.00      141       -9     0.00     0.00      -31        0        0      -31
   15 091    15    12461    -1000     0.02     0.00      154      -10     0.00     0.00      -35        0        0      -35
   15 092    16     8826     -656     0.02     0.00      163      -10     0.00     0.00      -37        0        0      -37
   15 093    17     5194     -250     0.02     0.00      168      -10     0.00     0.00      -38        0        0      -38
   15 094    18      175       94     0.05     0.00      168      -10     0.00     0.00      -38        0        0      -38
   15 095    19       46        0     0.03     0.00      168      -10     0.00     0.00      -38        0        0      -38
   15 096    20        0        0     0.06     0.00      168      -10     0.00     0.00      -38        0        0      -38
   15 097    21        0        0     0.07     0.00      168      -10     0.00     0.00      -38        0        0      -38
   15 098    22        0        0     0.08     0.00      168      -10     0.00     0.00      -38        0        0      -38
   15 099    23        0        0     0.22     0.00      168      -10     0.00     0.00      -38        0        0      -37
   15 100    24       94       94     0.46     0.00      168      -10     0.00     0.00      -38        1        0      -37
   15 101    25     8345     -719     0.78     0.00      177      -11     0.00     0.00      -40        1        0      -39
   15 102    26    18065    -1469     1.16     0.00      195      -12     0.00     0.00      -46        2        0      -44
   15 103    27    26408    -1969     1.56     0.00      221      -14     0.00     0.00      -53        2        0      -50
   15 104    28    29842    -2000     1.88     0.00      251      -16     0.01     0.00      -60        3        0      -57
   15 105    29    29767    -1688     2.07     0.00      281      -18     0.01     0.00      -66        4        0      -62
   15 106    30    30417    -1406     2.16     0.00      311      -19     0.01     0.00      -71        5        0      -66
   15 107    31    31298     -875     2.18     0.00      342      -20     0.01     0.00      -75        6        0      -69
   15 108    32    45077    -4375     0.64     0.00      387      -25     0.01     0.00      -91        6        0      -84
   15 109    33    41417    -4469     1.48     0.00      429      -29     0.02     0.00     -107        7        0     -100
   15 110    34    35229    -3938     1.98     0.00      464      -33     0.02     0.00     -122        8        0     -113
   15 111    35    25495    -2531     1.82     0.00      490      -36     0.02     0.00     -131        9        0     -122
   15 112    36    18035    -1531     1.65     0.00      508      -37     0.02     0.00     -136       10        0     -127
   15 113    37    16762    -1188     1.51     0.00      524      -38     0.02     0.00     -141       10        0     -130
   15 114    38    15696     -875     1.38     0.00      540      -39     0.02     0.00     -144       11        0     -133
   15 115    39    16732     -719     1.26     0.00      557      -40     0.02     0.00     -147       12        0     -135
   15 116    40    19209     -750     1.09     0.00      576      -41     0.03     0.00     -149       12        0     -137
   15 117    41    22686     -906     0.96     0.00      599      -42     0.03     0.00     -153       13        0     -140
   15 118    42    30858    -2281     0.81     0.00      630      -44     0.03     0.00     -161       13        0     -148
   15 119    43    33215    -2438     0.38     0.00      663      -46     0.03     0.00     -170       13        0     -157
   15 120    44    33071    -2688     0.60     0.00      696      -49     0.03     0.00     -180       13        0     -167
   15 121    45    32026    -2656     0.60     0.00      728      -52     0.03     0.00     -190       14        0     -176
   15 122    46    20043     -781     0.22     0.00      748      -52     0.03     0.00     -193       14        0     -179
   15 123    47    17690     -875     0.29     0.00      766      -53     0.03     0.00     -196       14        0     -182
   15 124    48    20006     -625     0.18     0.00      786      -54     0.03     0.00     -198       14        0     -184
   15 125    49    31951    -1719     0.35     0.00      818      -56     0.03     0.00     -204       14        0     -190
   15 126    50    33469     -531     0.26     0.00      851      -56     0.03     0.00     -206       14        0     -192
   15 127    51    29838      844     0.19     0.00      881      -55     0.03     0.00     -203       14        0     -189
   15 128    52    33125      531     0.32     0.00      914      -55     0.03     0.00     -201       15        0     -187
   15 129    53    29278     1906     0.38     0.00      943      -53     0.03     0.00     -194       15        0     -180
   15 130    54    24057     2656     0.25     0.00      967      -50     0.03     0.00     -185       15        0     -170
   15 131    55    19318     2750     0.33     0.00      987      -48     0.03     0.00     -174       15        0     -159
   15 132    56    17174     3688     0.33     0.00     1004      -44     0.03     0.00     -161       15        0     -146
   15 133    57    17029     4656     0.32     0.00     1021      -39     0.03     0.00     -144       15        0     -128
   15 134    58    17497     4875     0.24     0.00     1038      -34     0.03     0.00     -126       15        0     -110
   15 135    59    17001     5188     0.29     0.00     1055      -29     0.03     0.00     -107       16        0      -91
   15 136    60    16127     5094     0.31     0.00     1071      -24     0.03     0.00      -88       16        0      -72
   15 137    61    15429     5063     0.33     0.00     1087      -19     0.03     0.00      -70       16        0      -54
   15 138    62    14341     4656     0.34     0.00     1101      -14     0.03     0.00      -53       16        0      -36
   15 139    63    13628     4344     0.34     0.00     1115      -10     0.03     0.00      -37       16        0      -20
   15 140    64    13338     4375     0.12     0.00     1128       -6     0.03     0.00      -21       16        0       -4
   15 141    65    13793     3750     0.11     0.00     1142       -2     0.03     0.00       -7       16        0       10
   15 142    66    14882     2938     0.16     0.00     1157        1     0.03     0.00        4       16        0       20
   15 143    67    14544     2281     0.26     0.00     1171        3     0.04     0.00       12       16        0       29
   15 144    68    12454     2156     0.20     0.00     1184        6     0.04     0.00       20       17        0       37
   15 145    69    11434     2156     0.24     0.00     1195        8     0.04     0.00       28       17        0       45
   15 146    70    11837     3125     0.28     0.00     1207       11     0.04     0.00       40       17        0       57
   15 147    71    11784     3500     0.36     0.00     1219       14     0.04     0.00       53       17        0       70
   15 148    72    11142     3500     0.40     0.00     1230       18     0.04     0.00       65       17        0       83
   15 149    73    10751     3719     0.42     0.00     1241       22     0.04     0.00       79       17        0       96
   15 150    74    11183     4250     0.42     0.00     1252       26     0.04     0.00       95       18        0      112
   15 151    75    11350     4281     0.42     0.00     1263       30     0.04     0.00      110       18        0      128
   15 152    76    12252     4781     0.43     0.00     1276       35     0.04     0.00      128       18        0      146
   15 153    77    28692     2375     1.15     0.00     1304       37     0.04     0.00      137       19        0      155
   15 154    78    32251     2844     1.89     0.00     1337       40     0.04     0.00      147       19        0      166
   15 155    79    34667     3031     2.34     0.00     1371       43     0.04     0.00      158       21        0      179
   15 156    80    35658     3656     2.51     0.00     1407       47     0.05     0.00      172       22        0      193
   15 157    81    36761     4125     2.54     0.00     1444       51     0.05     0.00      187       23        0      210
   15 158    82    46948     1969     2.25     0.00     1491       53     0.05     0.00      194       24        0      218
   15 159    83    45884     2031     1.99     0.00     1537       55     0.05     0.00      201       25        0      226
   15 160    84    56871    -1031     0.65     0.00     1593       54     0.05     0.00      198       25        0      223
   15 161    85    50701     -750     0.97     0.00     1644       53     0.05     0.00      195       26        0      220
   15 162    86    41638      500     1.22     0.00     1686       54     0.06     0.00      197       26        0      223
   15 163    87    36947     1063     1.33     0.00     1723       55     0.06     0.00      201       27        0      227
   15 164    88    34035     1625     1.23     0.00     1757       56     0.06     0.00      207       27        0      234
   15 165    89    35518     1813     0.52     0.00     1792       58     0.06     0.00      213       28        0      241
   15 166    90    39703     1969     0.81     0.00     1832       60     0.06     0.00      220       28        0      248
   15 167    91    33867     3656     0.38     0.00     1866       64     0.06     0.00      234       28        0      262
   15 168    92    36829     2656     0.63     0.00     1903       66     0.06     0.00      244       28        0      272
   15 169    93    34391     2375     0.81     0.00     1937       69     0.06     0.00      252       29        0      281
   15 170    94    28559     2656     0.29     0.00     1966       71     0.06     0.00      262       29        0      291
   15 171    95    28319     1563     0.53     0.00     1994       73     0.06     0.00      268       29        0      297
   15 172    96    26120     1656     0.59     0.00     2020       75     0.06     0.00      274       30        0      303
   15 173    97    24779     1750     0.61     0.00     2045       76     0.06     0.00      280       30        0      310
   15 174    98    25187     1938     0.68     0.00     2070       78     0.06     0.00      287       30        0      318
   15 175    99    24668     1969     0.48     0.00     2095       80     0.06     0.00      295       30        0      325
   15 176   100    24893     2094     0.59     0.00     2120       82     0.07     0.00      302       31        0      333
   15 177   101    25021     2469     0.59     0.00     2145       85     0.07     0.00      311       31        0      342
   15 178   102    25497     2844     0.55     0.00     2170       88     0.07     0.00      322       31        0      353
   15 179   103    25540     3188     0.53     0.00     2196       91     0.07     0.00      334       31        0      365
   15 180   104    27371     3563     0.51     0.00     2223       94     0.07     0.00      347       32        0      378
   15 181   105    28647     3969     0.50     0.00     2252       98     0.07     0.00      361       32        0      393
   15 182   106    28626     4750     0.50     0.00     2280      103     0.07     0.00      379       32        0      411
   15 183   107    26652     5438     0.51     0.00     2307      109     0.07     0.00      399       32        0      431
   15 184   108    25061     5750     1.73     0.00     2332      114     0.07     0.00      420       33        0      453
   15 185   109    23673     6188     2.78     0.00     2356      121     0.07     0.00      442       34        0      477
   15 186   110    22578     6656     3.49     0.00     2378      127     0.08     0.00      467       36        0      503
   15 187   111    21096     7031     3.87     0.00     2399      134     0.08     0.00      493       38        0      530
   15 188   112    20695     6750     4.00     0.00     2420      141     0.08     0.00      517       40        0      557
   15 189   113    28451     5469     3.83     0.00     2448      146     0.09     0.00      537       42        0      579
   15 190   114    32658     3625     3.03     0.00     2481      150     0.09     0.00      551       43        0      594
   15 191   115    29319     3125     3.52     0.00     2510      153     0.10     0.00      562       45        0      607
   15 192   116    23636     3125     3.24     0.00     2534      156     0.10     0.00      574       46        0      620
   15 193   117    18588     3531     2.93     0.00     2553      160     0.10     0.00      587       48        0      634
   15 194   118    13553     3656     2.71     0.00     2566      164     0.10     0.00      600       49        0      649
   15 195   119    12883     3594     2.38     0.00     2579      167     0.11     0.00      613       50        0      663
   15 196   120    13053     4125     2.16     0.00     2592      171     0.11     0.00      628       51        0      679
   15 197   121    12545     4594     1.96     0.00     2605      176     0.11     0.00      645       52        0      697
   15 198   122    11406     4906     1.76     0.00     2616      181     0.11     0.00      663       53        0      716
   15 199   123    10105     5063     1.58     0.00     2626      186     0.11     0.00      682       53        0      735
   15 200   124     9590     5156     1.40     0.00     2636      191     0.12     0.00      701       54        0      755
   15 201   125     9431     5063     1.25     0.00     2645      196     0.12     0.00      719       55        0      774
   15 202   126     8608     5250     1.14     0.00     2654      201     0.12     0.00      739       55        0      794
   15 203   127     7937     5281     1.05     0.00     2662      207     0.12     0.00      758       56        0      814
   15 204   128     7133     5219     0.96     0.00     2669      212     0.12     0.00      777       56        0      833
   15 205   129     8589     4844     0.84     0.00     2677      217     0.12     0.00      795       56        0      851
   15 206   130     7894     4813     0.80     0.00     2685      221     0.12     0.00      813       57        0      869
   15 207   131     7346     4625     0.74     0.00     2693      226     0.12     0.00      830       57        0      887
   15 208   132     7413     4156     0.68     0.00     2700      230     0.12     0.00      845       58        0      902
   15 209   133    10267     3344     0.59     0.00     2710      234     0.12     0.00      857       58        0      915
   15 210   134     8317     3469     0.59     0.00     2719      237     0.12     0.00      870       58        0      928
   15 211   135     6503     3281     0.58     0.00     2725      240     0.12     0.00      882       58        0      940
   15 212   136     5022     3313     0.58     0.00     2730      244     0.13     0.00      894       59        0      953
   15 213   137     4798     3344     0.56     0.00     2735      247     0.13     0.00      906       59        0      965
   15 214   138     4446     3406     0.54     0.00     2739      250     0.13     0.00      919       59        0      978
   15 215   139     4410     3406     0.51     0.00     2744      254     0.13     0.00      931       59        0      991
   15 216   140     4486     3750     0.50     0.00     2748      258     0.13     0.00      945       60        0     1005
   15 217   141     4684     4125     0.48     0.00     2753      262     0.13     0.00      960       60        0     1020
   15 218   142     4754     4406     0.47     0.00     2758      266     0.13     0.00      976       60        0     1036
   15 219   143     5067     4813     0.46     0.00     2763      271     0.13     0.00      994       60        0     1054
   15 220   144     5378     5000     0.45     0.00     2768      276     0.13     0.00     1012       60        0     1073
   15 221   145     7664     5094     0.41     0.00     2776      281     0.13     0.00     1031       61        0     1092
   15 222   146     7426     5281     0.42     0.00     2783      286     0.13     0.00     1050       61        0     1111
   15 223   147     7145     5438     0.42     0.00     2790      292     0.13     0.00     1070       61        0     1131
   15 224   148     6801     5500     0.42     0.00     2797      297     0.13     0.00     1091       61        0     1152
   15 225   149     6397     5531     0.42     0.00     2804      303     0.13     0.00     1111       61        0     1172
   15 226   150     6032     5531     0.41     0.00     2810      308     0.13     0.00     1131       62        0     1193
   15 227   151    12446     4625     0.36     0.00     2822      313     0.13     0.00     1148       62        0     1210
   15 228   152    12123     4531     0.38     0.00     2834      317     0.13     0.00     1165       62        0     1227
   15 229   153    15550     3500     0.31     0.00     2850      321     0.13     0.00     1178       62        0     1240
   15 230   154    16134     3000     0.21     0.00     2866      324     0.13     0.00     1189       62        0     1251
   15 231   155    16590     2313     0.45     0.00     2883      326     0.13     0.00     1197       62        0     1260
   15 232   156    13756     2406     0.46     0.00     2896      329     0.13     0.00     1206       63        0     1269
   15 233   157    12078     2375     0.46     0.00     2908      331     0.13     0.00     1215       63        0     1278
   15 234   158    11126     2563     0.47     0.00     2920      334     0.13     0.00     1224       63        0     1287
   15 235   159    10871     2688     0.48     0.00     2930      336     0.14     0.00     1234       63        0     1297
   15 236   160    12439     2625     0.48     0.00     2943      339     0.14     0.00     1244       64        0     1307
   15 237   161    23587     1313     0.21     0.00     2966      340     0.14     0.00     1248       64        0     1312

*DSSAT Cropping System Model Ver. 4.8.5.000 -release  MAR 01, 2026 09:34:20

*RUN   2        : 2                         WHAPS048 TUDU1501    2
 MODEL          : WHAPS048 - Wheat
 EXPERIMENT     : TUDU1501 WH
 DATA PATH      :
 TREATMENT  2   : 2                         WHAPS048
  
!               |---------- Daily (g/ha) ----------|------- Cumulative (kg/ha) --------|---- Cum CO2-equiv kg[CO2eq]/ha ---|
!               Soil CO2  Net CO2      N2O      CH4 Soil CO2  Net CO2      N2O      CH4  Net CO2      N2O      CH4    Total
!                g[C]/ha  g[C]/ha  g[N]/ha  g[C]/ha kg[C]/ha kg[C]/ha kg[N]/ha kg[C]/ha    CO2eq    CO2eq    CO2eq    CO2eq
@YEAR DOY   DAS   CO2GED   CO2END   N2OGED   CH4GED    CO2EC   CO2ENC    N2OEC    CH4EC    CCEQC    NCEQC    MCEQC    TCEQC
   15 077     1    29546    -2375     0.01     0.00       30       -2     0.00     0.00       -9        0        0       -9
   15 078     2    25852    -2000     0.01     0.00       55       -4     0.00     0.00      -16        0        0      -16
   15 079     3    20121    -1281     0.02     0.00       76       -6     0.00     0.00      -21        0        0      -21
   15 080     4    13977     -781     0.02     0.00       89       -6     0.00     0.00      -24        0        0      -24
   15 081     5     9264     -531     0.02     0.00       99       -7     0.00     0.00      -26        0        0      -26
   15 082     6     2670      -31     0.02     0.00      101       -7     0.00     0.00      -26        0        0      -26
   15 083     7      146       94     0.02     0.00      102       -7     0.00     0.00      -25        0        0      -25
   15 084     8      153       63     0.02     0.00      102       -7     0.00     0.00      -25        0        0      -25
   15 085     9     1751       94     0.03     0.00      103       -7     0.00     0.00      -25        0        0      -25
   15 086    10     2967        0     0.03     0.00      106       -7     0.00     0.00      -25        0        0      -25
   15 087    11     5094     -156     0.03     0.00      112       -7     0.00     0.00      -25        0        0      -25
   15 088    12     8135     -344     0.03     0.00      120       -7     0.00     0.00      -27        0        0      -26
   15 089    13    10948     -438     0.04     0.00      131       -8     0.00     0.00      -28        0        0      -28
   15 090    14    10826     -813     0.03     0.00      141       -9     0.00     0.00      -31        0        0      -31
   15 091    15    12461    -1000     0.02     0.00      154      -10     0.00     0.00      -35        0        0      -35
   15 092    16     8826     -656     0.02     0.00      163      -10     0.00     0.00      -37        0        0      -37
   15 093    17     5194     -250     0.02     0.00      168      -10     0.00     0.00      -38        0        0      -38
   15 094    18      175       94     0.05     0.00      168      -10     0.00     0.00      -38        0        0      -38
   15 095    19       46        0     0.03     0.00      168      -10     0.00     0.00      -38        0        0      -38
   15 096    20        0        0     0.06     0.00      168      -10     0.00     0.00      -38        0        0      -38
   15 097    21        0        0     0.07     0.00      168      -10     0.00     0.00      -38        0        0      -38
   15 098    22        0        0     0.08     0.00      168      -10     0.00     0.00      -38        0        0      -38
   15 099    23        0        0     0.41     0.00      168      -10     0.00     0.00      -38        1        0      -37
   15 100    24       94       94     0.70     0.00      168      -10     0.00     0.00      -38        1        0      -37
   15 101    25     8259     -688     0.97     0.00      177      -11     0.00     0.00      -40        1        0      -39
   15 102    26    17842    -1406     1.23     0.00      194      -12     0.00     0.00      -45        2        0      -43
   15 103    27    26051    -1875     1.47     0.00      220      -14     0.01     0.00      -52        3        0      -50
   15 104    28    29426    -1938     1.64     0.00      250      -16     0.01     0.00      -59        3        0      -56
   15 105    29    29378    -1563     1.71     0.00      279      -18     0.01     0.00      -65        4        0      -61
   15 106    30    30060    -1281     1.72     0.00      309      -19     0.01     0.00      -70        5        0      -65
   15 107    31    31106     -875     1.68     0.00      340      -20     0.01     0.00      -73        6        0      -67
   15 108    32    46509    -4719     0.48     0.00      387      -25     0.01     0.00      -90        6        0      -84
   15 109    33    42518    -4750     1.09     0.00      429      -29     0.01     0.00     -108        6        0     -101
   15 110    34    36068    -4125     1.44     0.00      465      -33     0.02     0.00     -123        7        0     -116
   15 111    35    26083    -2719     1.31     0.00      492      -36     0.02     0.00     -133        8        0     -125
   15 112    36    18437    -1625     1.18     0.00      510      -38     0.02     0.00     -139        8        0     -130
   15 113    37    17162    -1281     1.06     0.00      527      -39     0.02     0.00     -143        9        0     -135
   15 114    38    16039     -969     0.97     0.00      543      -40     0.02     0.00     -147        9        0     -138
   15 115    39    17098     -813     0.88     0.00      560      -41     0.02     0.00     -150       10        0     -140
   15 116    40    19569     -844     0.76     0.00      580      -42     0.02     0.00     -153       10        0     -143
   15 117    41    22981     -969     0.67     0.00      603      -43     0.02     0.00     -157       10        0     -146
   15 118    42    30959    -2313     0.57     0.00      634      -45     0.02     0.00     -165       11        0     -154
   15 119    43    33388    -2438     0.27     0.00      667      -47     0.02     0.00     -174       11        0     -163
   15 120    44    33212    -2750     0.43     0.00      700      -50     0.02     0.00     -184       11        0     -173
   15 121    45    32137    -2656     0.43     0.00      733      -53     0.02     0.00     -194       11        0     -183
   15 122    46    20021     -781     0.16     0.00      753      -54     0.02     0.00     -197       11        0     -185
   15 123    47    17674     -875     0.22     0.00      770      -54     0.02     0.00     -200       11        0     -189
   15 124    48    19991     -594     0.13     0.00      790      -55     0.02     0.00     -202       11        0     -191
   15 125    49    31924    -1750     0.26     0.00      822      -57     0.02     0.00     -209       11        0     -197
   15 126    50    33615     -563     0.20     0.00      856      -57     0.02     0.00     -211       12        0     -199
   15 127    51    29851      875     0.14     0.00      886      -57     0.02     0.00     -207       12        0     -196
   15 128    52    33392      438     0.25     0.00      919      -56     0.03     0.00     -206       12        0     -194
   15 129    53    29397     1875     0.31     0.00      948      -54     0.03     0.00     -199       12        0     -187
   15 130    54    23867     2688     0.21     0.00      972      -52     0.03     0.00     -189       12        0     -177
   15 131    55    19067     2844     0.28     0.00      991      -49     0.03     0.00     -179       12        0     -166
   15 132    56    16906     3719     0.29     0.00     1008      -45     0.03     0.00     -165       12        0     -153
   15 133    57    16808     4719     0.29     0.00     1025      -40     0.03     0.00     -148       12        0     -135
   15 134    58    17335     4906     0.22     0.00     1042      -35     0.03     0.00     -130       13        0     -117
   15 135    59    16860     5250     0.27     0.00     1059      -30     0.03     0.00     -110       13        0      -98
   15 136    60    16002     5094     0.30     0.00     1075      -25     0.03     0.00      -92       13        0      -79
   15 137    61    15316     5125     0.32     0.00     1091      -20     0.03     0.00      -73       13        0      -60
   15 138    62    14240     4656     0.33     0.00     1105      -15     0.03     0.00      -56       13        0      -43
   15 139    63    13537     4406     0.33     0.00     1118      -11     0.03     0.00      -40       13        0      -26
   15 140    64    13259     4375     0.12     0.00     1132       -6     0.03     0.00      -24       13        0      -10
   15 141    65    13716     3781     0.11     0.00     1145       -3     0.03     0.00      -10       13        0        4
   15 142    66    14818     2938     0.16     0.00     1160        0     0.03     0.00        1       13        0       15
   15 143    67    14488     2313     0.26     0.00     1175        3     0.03     0.00       10       14        0       23
   15 144    68    12362     2156     0.21     0.00     1187        5     0.03     0.00       18       14        0       31
   15 145    69    11313     2156     0.24     0.00     1198        7     0.03     0.00       25       14        0       39
   15 146    70    11702     3188     0.29     0.00     1210       10     0.03     0.00       37       14        0       51
   15 147    71    11643     3531     0.37     0.00     1222       14     0.03     0.00       50       14        0       64
   15 148    72    10983     3531     0.41     0.00     1233       17     0.03     0.00       63       14        0       77
   15 149    73    10602     3781     0.42     0.00     1243       21     0.03     0.00       77       14        0       91
   15 150    74    11050     4313     0.43     0.00     1254       25     0.03     0.00       93       15        0      107
   15 151    75    11230     4313     0.43     0.00     1265       30     0.03     0.00      109       15        0      123
   15 152    76    12137     4781     0.44     0.00     1278       34     0.03     0.00      126       15        0      141
   15 153    77    28630     2406     1.32     0.00     1306       37     0.03     0.00      135       16        0      151
   15 154    78    32633     2688     1.87     0.00     1339       39     0.04     0.00      145       17        0      161
   15 155    79    35332     2938     2.10     0.00     1374       42     0.04     0.00      156       18        0      173
   15 156    80    36518     3406     2.14     0.00     1411       46     0.04     0.00      168       19        0      187
   15 157    81    37626     3938     2.08     0.00     1448       50     0.04     0.00      183       20        0      202
   15 158    82    47885     1688     1.82     0.00     1496       51     0.04     0.00      189       20        0      209
   15 159    83    45797     2063     1.61     0.00     1542       54     0.05     0.00      196       21        0      217
   15 160    84    56890    -1031     0.53     0.00     1599       52     0.05     0.00      193       21        0      214
   15 161    85    50630     -719     0.80     0.00     1650       52     0.05     0.00      190       22        0      212
   15 162    86    43145      125     1.02     0.00     1693       52     0.05     0.00      190       22        0      213
   15 163    87    37645      875     1.13     0.00     1730       53     0.05     0.00      194       23        0      216
   15 164    88    34372     1594     1.05     0.00     1765       54     0.05     0.00      199       23        0      223
   15 165    89    35684     1750     0.45     0.00     1800       56     0.05     0.00      206       23        0      229
   15 166    90    39913     1906     0.71     0.00     1840       58     0.05     0.00      213       24        0      237
   15 167    91    34013     3594     0.34     0.00     1874       62     0.05     0.00      226       24        0      250
   15 168    92    37088     2625     0.56     0.00     1911       64     0.05     0.00      236       24        0      260
   15 169    93    34598     2281     0.73     0.00     1946       67     0.05     0.00      244       25        0      269
   15 170    94    28760     2625     0.26     0.00     1975       69     0.05     0.00      254       25        0      278
   15 171    95    28713     1469     0.49     0.00     2004       71     0.05     0.00      259       25        0      284
   15 172    96    26494     1563     0.54     0.00     2030       72     0.05     0.00      265       25        0      290
   15 173    97    25146     1656     0.57     0.00     2055       74     0.05     0.00      271       25        0      296
   15 174    98    25557     1813     0.64     0.00     2081       76     0.05     0.00      278       26        0      303
   15 175    99    25054     1875     0.46     0.00     2106       78     0.06     0.00      284       26        0      310
   15 176   100    25300     2031     0.56     0.00     2131       80     0.06     0.00      292       26        0      318
   15 177   101    25480     2344     0.56     0.00     2157       82     0.06     0.00      300       26        0      327
   15 178   102    26021     2688     0.54     0.00     2183       85     0.06     0.00      310       27        0      337
   15 179   103    26275     3063     0.51     0.00     2209       88     0.06     0.00      322       27        0      349
   15 180   104    28349     3281     0.50     0.00     2237       91     0.06     0.00      334       27        0      361
   15 181   105    28452     4000     0.49     0.00     2266       95     0.06     0.00      348       27        0      376
   15 182   106    28449     4813     0.50     0.00     2294      100     0.06     0.00      366       28        0      394
   15 183   107    26502     5500     0.51     0.00     2321      105     0.06     0.00      386       28        0      414
   15 184   108    24904     5781     1.83     0.00     2345      111     0.06     0.00      407       29        0      436
   15 185   109    23538     6219     2.63     0.00     2369      117     0.06     0.00      430       30        0      460
   15 186   110    22459     6656     3.06     0.00     2391      124     0.07     0.00      455       31        0      486
   15 187   111    20997     7063     3.23     0.00     2412      131     0.07     0.00      481       33        0      513
   15 188   112    20575     6781     3.21     0.00     2433      138     0.07     0.00      505       34        0      540
   15 189   113    28114     5531     2.96     0.00     2461      143     0.08     0.00      526       36        0      562
   15 190   114    32226     3750     2.30     0.00     2493      147     0.08     0.00      539       37        0      576
   15 191   115    28940     3219     2.65     0.00     2522      150     0.08     0.00      551       38        0      589
   15 192   116    23360     3188     2.45     0.00     2546      153     0.08     0.00      563       39        0      602
   15 193   117    18401     3563     2.23     0.00     2564      157     0.09     0.00      576       40        0      616
   15 194   118    13436     3719     2.08     0.00     2578      161     0.09     0.00      590       41        0      631
   15 195   119    12765     3594     1.85     0.00     2590      164     0.09     0.00      603       42        0      645
   15 196   120    12946     4188     1.69     0.00     2603      168     0.09     0.00      618       43        0      661
   15 197   121    12452     4594     1.55     0.00     2616      173     0.09     0.00      635       44        0      679
   15 198   122    11329     4906     1.42     0.00     2627      178     0.09     0.00      653       44        0      697
   15 199   123    10039     5063     1.29     0.00     2637      183     0.10     0.00      672       45        0      717
   15 200   124     9524     5188     1.16     0.00     2647      188     0.10     0.00      691       45        0      736
   15 201   125     9362     5063     1.05     0.00     2656      193     0.10     0.00      709       46        0      755
   15 202   126     8552     5250     0.98     0.00     2665      199     0.10     0.00      729       46        0      775
   15 203   127     7893     5313     0.91     0.00     2672      204     0.10     0.00      748       47        0      795
   15 204   128     7100     5219     0.85     0.00     2679      209     0.10     0.00      767       47        0      814
   15 205   129     8521     4844     0.76     0.00     2688      214     0.10     0.00      785       48        0      833
   15 206   130     7840     4813     0.72     0.00     2696      219     0.10     0.00      803       48        0      851
   15 207   131     7299     4656     0.68     0.00     2703      223     0.10     0.00      820       48        0      868
   15 208   132     7355     4156     0.63     0.00     2711      228     0.10     0.00      835       49        0      884
   15 209   133    10141     3375     0.56     0.00     2721      231     0.10     0.00      847       49        0      896
   15 210   134     8230     3469     0.56     0.00     2729      234     0.10     0.00      860       49        0      909
   15 211   135     6447     3344     0.56     0.00     2735      238     0.11     0.00      872       49        0      922
   15 212   136     4993     3250     0.56     0.00     2740      241     0.11     0.00      884       50        0      934
   15 213   137     4774     3406     0.54     0.00     2745      244     0.11     0.00      897       50        0      947
   15 214   138     4429     3375     0.52     0.00     2750      248     0.11     0.00      909       50        0      959
   15 215   139     4395     3406     0.50     0.00     2754      251     0.11     0.00      922       50        0      972
   15 216   140     4474     3781     0.49     0.00     2758      255     0.11     0.00      936       51        0      986
   15 217   141     4676     4094     0.48     0.00     2763      259     0.11     0.00      951       51        0     1001
   15 218   142     4751     4406     0.46     0.00     2768      263     0.11     0.00      967       51        0     1018
   15 219   143     5065     4781     0.45     0.00     2773      268     0.11     0.00      984       51        0     1036
   15 220   144     5376     5063     0.44     0.00     2778      273     0.11     0.00     1003       51        0     1054
   15 221   145     7619     5063     0.41     0.00     2786      278     0.11     0.00     1022       52        0     1073
   15 222   146     7390     5313     0.42     0.00     2793      284     0.11     0.00     1041       52        0     1093
   15 223   147     7117     5469     0.42     0.00     2800      289     0.11     0.00     1061       52        0     1113
   15 224   148     6781     5469     0.42     0.00     2807      295     0.11     0.00     1081       52        0     1133
   15 225   149     6385     5563     0.42     0.00     2814      300     0.11     0.00     1102       52        0     1154
   15 226   150     6026     5500     0.41     0.00     2820      306     0.11     0.00     1122       53        0     1174
   15 227   151    12307     4656     0.36     0.00     2832      310     0.11     0.00     1139       53        0     1192
   15 228   152    11990     4563     0.37     0.00     2844      315     0.11     0.00     1156       53        0     1209
   15 229   153    15346     3531     0.31     0.00     2859      318     0.11     0.00     1169       53        0     1222
   15 230   154    15961     3031     0.21     0.00     2875      321     0.11     0.00     1180       53        0     1233
   15 231   155    16409     2375     0.45     0.00     2892      324     0.11     0.00     1188       53        0     1242
   15 232   156    13613     2406     0.46     0.00     2905      326     0.11     0.00     1197       54        0     1251
   15 233   157    11960     2438     0.46     0.00     2917      329     0.11     0.00     1206       54        0     1260
   15 234   158    11025     2531     0.47     0.00     2928      331     0.12     0.00     1215       54        0     1269
   15 235   159    10778     2781     0.48     0.00     2939      334     0.12     0.00     1226       54        0     1280
   15 236   160    12320     2625     0.48     0.00     2951      337     0.12     0.00     1235       54        0     1290
   15 237   161    23410     1375     0.21     0.00     2975      338     0.12     0.00     1240       55        0     1295

*DSSAT Cropping System Model Ver. 4.8.5.000 -release  MAR 01, 2026 09:34:20

*RUN   3        : 3                         WHAPS048 TUDU1501    3
 MODEL          : WHAPS048 - Wheat
 EXPERIMENT     : TUDU1501 WH
 DATA PATH      :
 TREATMENT  3   : 3                         WHAPS048
  
!               |---------- Daily (g/ha) ----------|------- Cumulative (kg/ha) --------|---- Cum CO2-equiv kg[CO2eq]/ha ---|
!               Soil CO2  Net CO2      N2O      CH4 Soil CO2  Net CO2      N2O      CH4  Net CO2      N2O      CH4    Total
!                g[C]/ha  g[C]/ha  g[N]/ha  g[C]/ha kg[C]/ha kg[C]/ha kg[N]/ha kg[C]/ha    CO2eq    CO2eq    CO2eq    CO2eq
@YEAR DOY   DAS   CO2GED   CO2END   N2OGED   CH4GED    CO2EC   CO2ENC    N2OEC    CH4EC    CCEQC    NCEQC    MCEQC    TCEQC
   15 077     1    29546    -2375     0.01     0.00       30       -2     0.00     0.00       -9        0        0       -9
   15 078     2    25852    -2000     0.01     0.00       55       -4     0.00     0.00      -16        0        0      -16
   15 079     3    20121    -1281     0.02     0.00       76       -6     0.00     0.00      -21        0        0      -21
   15 080     4    13977     -781     0.02     0.00       89       -6     0.00     0.00      -24        0        0      -24
   15 081     5     9264     -531     0.02     0.00       99       -7     0.00     0.00      -26        0        0      -26
   15 082     6     2670      -31     0.02     0.00      101       -7     0.00     0.00      -26        0        0      -26
   15 083     7      146       94     0.02     0.00      102       -7     0.00     0.00      -25        0        0      -25
   15 084     8      153       63     0.02     0.00      102       -7     0.00     0.00      -25        0        0      -25
   15 085     9     1751       94     0.03     0.00      103       -7     0.00     0.00      -25        0        0      -25
   15 086    10     2967        0     0.03     0.00      106       -7     0.00     0.00      -25        0        0      -25
   15 087    11     5094     -156     0.03     0.00      112       -7     0.00     0.00      -25        0        0      -25
   15 088    12     8135     -344     0.03     0.00      120       -7     0.00     0.00      -27        0        0      -26
   15 089    13    10948     -438     0.04     0.00      131       -8     0.00     0.00      -28        0        0      -28
   15 090    14    10826     -813     0.03     0.00      141       -9     0.00     0.00      -31        0        0      -31
   15 091    15    12461    -1000     0.02     0.00      154      -10     0.00     0.00      -35        0        0      -35
   15 092    16     8826     -656     0.02     0.00      163      -10     0.00     0.00      -37        0        0      -37
   15 093    17     5194     -250     0.02     0.00      168      -10     0.00     0.00      -38        0        0      -38
   15 094    18      175       94     0.05     0.00      168      -10     0.00     0.00      -38        0        0      -38
   15 095    19       46        0     0.03     0.00      168      -10     0.00     0.00      -38        0        0      -38
   15 096    20        0        0     0.06     0.00      168      -10     0.00     0.00      -38        0        0      -38
   15 097    21        0        0     0.07     0.00      168      -10     0.00     0.00      -38        0        0      -38
   15 098    22        0        0     0.08     0.00      168      -10     0.00     0.00      -38        0        0      -38
   15 099    23        0        0     0.08     0.00      168      -10     0.00     0.00      -38        0        0      -37
   15 100    24       94       94     0.08     0.00      168      -10     0.00     0.00      -38        0        0      -37
   15 101    25     7558     -531     0.08     0.00      176      -11     0.00     0.00      -39        0        0      -39
   15 102    26    16425    -1031     0.09     0.00      192      -12     0.00     0.00      -43        0        0      -43
   15 103    27    24127    -1375     0.09     0.00      216      -13     0.00     0.00      -48        1        0      -48
   15 104    28    27478    -1469     0.09     0.00      244      -15     0.00     0.00      -54        1        0      -53
   15 105    29    27742    -1156     0.10     0.00      272      -16     0.00     0.00      -58        1        0      -57
   15 106    30    28776    -1000     0.10     0.00      300      -17     0.00     0.00      -62        1        0      -61
   15 107    31    30232     -625     0.10     0.00      331      -17     0.00     0.00      -64        1        0      -63
   15 108    32    36488    -2219     0.03     0.00      367      -20     0.00     0.00      -72        1        0      -71
   15 109    33    33926    -2594     0.07     0.00      401      -22     0.00     0.00      -82        1        0      -81
   15 110    34    27336    -1938     0.10     0.00      428      -24     0.00     0.00      -89        1        0      -88
   15 111    35    20837    -1406     0.11     0.00      449      -26     0.00     0.00      -94        1        0      -93
   15 112    36    15815     -969     0.11     0.00      465      -27     0.00     0.00      -97        1        0      -96
   15 113    37    15234     -781     0.11     0.00      480      -27     0.00     0.00     -100        1        0      -99
   15 114    38    14743     -594     0.12     0.00      495      -28     0.00     0.00     -102        1        0     -101
   15 115    39    15837     -500     0.12     0.00      511      -28     0.00     0.00     -104        1        0     -103
   15 116    40    17480     -313     0.12     0.00      528      -29     0.00     0.00     -105        1        0     -104
   15 117    41    19759      -94     0.13     0.00      548      -29     0.00     0.00     -106        1        0     -105
   15 118    42    22682     -188     0.11     0.00      571      -29     0.00     0.00     -106        1        0     -105
   15 119    43    19535     1031     0.06     0.00      590      -28     0.00     0.00     -103        1        0     -101
   15 120    44    17801     1063     0.12     0.00      608      -27     0.00     0.00      -99        1        0      -97
   15 121    45    17819      938     0.14     0.00      626      -26     0.00     0.00      -95        1        0      -94
   15 122    46    12741     1031     0.05     0.00      639      -25     0.00     0.00      -92        1        0      -90
   15 123    47    11466      719     0.08     0.00      650      -24     0.00     0.00      -89        1        0      -87
   15 124    48    11424     1531     0.05     0.00      662      -23     0.00     0.00      -83        1        0      -82
   15 125    49    13731     2781     0.11     0.00      675      -20     0.00     0.00      -73        2        0      -72
   15 126    50    15682     3938     0.09     0.00      691      -16     0.00     0.00      -59        2        0      -57
   15 127    51    15426     4469     0.06     0.00      706      -12     0.00     0.00      -42        2        0      -41
   15 128    52    17092     4500     0.12     0.00      723       -7     0.00     0.00      -26        2        0      -24
   15 129    53    17866     4750     0.16     0.00      741       -2     0.00     0.00       -8        2        0       -7
   15 130    54    17011     4406     0.10     0.00      758        2     0.00     0.00        8        2        0       10
   15 131    55    15825     3625     0.16     0.00      774        6     0.00     0.00       21        2        0       23
   15 132    56    15718     4063     0.18     0.00      790       10     0.00     0.00       36        2        0       38
   15 133    57    16604     4750     0.19     0.00      806       15     0.00     0.00       54        2        0       56
   15 134    58    17318     4969     0.12     0.00      824       20     0.00     0.00       72        2        0       74
   15 135    59    17419     5031     0.17     0.00      841       25     0.00     0.00       90        2        0       92
   15 136    60    16828     4906     0.20     0.00      858       30     0.00     0.00      108        2        0      110
   15 137    61    16333     4875     0.24     0.00      874       34     0.01     0.00      126        2        0      129
   15 138    62    15379     4438     0.25     0.00      890       39     0.01     0.00      142        2        0      145
   15 139    63    14723     4188     0.26     0.00      904       43     0.01     0.00      158        3        0      160
   15 140    64    14296     4219     0.09     0.00      919       47     0.01     0.00      173        3        0      176
   15 141    65    14296     3563     0.08     0.00      933       51     0.01     0.00      186        3        0      189
   15 142    66    14778     2969     0.13     0.00      948       54     0.01     0.00      197        3        0      200
   15 143    67    14463     2313     0.22     0.00      962       56     0.01     0.00      206        3        0      209
   15 144    68    13204     1969     0.17     0.00      976       58     0.01     0.00      213        3        0      216
   15 145    69    12622     1781     0.20     0.00      988       60     0.01     0.00      220        3        0      223
   15 146    70    13477     2750     0.24     0.00     1002       63     0.01     0.00      230        3        0      233
   15 147    71    13780     3000     0.31     0.00     1015       66     0.01     0.00      241        3        0      244
   15 148    72    13436     2969     0.34     0.00     1029       69     0.01     0.00      252        3        0      255
   15 149    73    13335     3094     0.35     0.00     1042       72     0.01     0.00      263        4        0      266
   15 150    74    14111     3500     0.36     0.00     1056       75     0.01     0.00      276        4        0      279
   15 151    75    14536     3469     0.37     0.00     1071       79     0.01     0.00      288        4        0      292
   15 152    76    15701     3906     0.38     0.00     1087       83     0.01     0.00      303        4        0      307
   15 153    77    18166     4906     0.39     0.00     1105       87     0.01     0.00      321        4        0      325
   15 154    78    20614     5531     0.41     0.00     1125       93     0.01     0.00      341        4        0      346
   15 155    79    22918     5813     0.42     0.00     1148       99     0.01     0.00      362        5        0      367
   15 156    80    25520     5813     0.44     0.00     1174      105     0.01     0.00      384        5        0      389
   15 157    81    28806     6063     0.45     0.00     1203      111     0.01     0.00      406        5        0      411
   15 158    82    32455     5938     0.42     0.00     1235      117     0.01     0.00      428        5        0      433
   15 159    83    35925     5219     0.44     0.00     1271      122     0.01     0.00      447        5        0      452
   15 160    84    39606     3813     0.14     0.00     1311      126     0.01     0.00      461        6        0      466
   15 161    85    42102     1906     0.25     0.00     1353      128     0.01     0.00      468        6        0      474
   15 162    86    38902     1469     0.38     0.00     1392      129     0.01     0.00      473        6        0      479
   15 163    87    36063     1563     0.49     0.00     1428      131     0.01     0.00      479        6        0      485
   15 164    88    34126     1938     0.51     0.00     1462      132     0.01     0.00      486        6        0      492
   15 165    89    36073     2219     0.22     0.00     1498      135     0.01     0.00      494        6        0      501
   15 166    90    40584     2438     0.39     0.00     1538      137     0.01     0.00      503        7        0      510
   15 167    91    34330     4094     0.19     0.00     1573      141     0.01     0.00      518        7        0      525
   15 168    92    36401     3094     0.36     0.00     1609      144     0.01     0.00      530        7        0      536
   15 169    93    34205     2500     0.51     0.00     1643      147     0.02     0.00      539        7        0      546
   15 170    94    27641     2969     0.18     0.00     1671      150     0.02     0.00      550        7        0      557
   15 171    95    25905     2219     0.37     0.00     1697      152     0.02     0.00      558        7        0      565
   15 172    96    24400     2094     0.45     0.00     1721      154     0.02     0.00      566        8        0      573
   15 173    97    23240     2125     0.50     0.00     1744      156     0.02     0.00      573        8        0      581
   15 174    98    23657     2281     0.56     0.00     1768      159     0.02     0.00      582        8        0      590
   15 175    99    23153     2375     0.44     0.00     1791      161     0.02     0.00      590        8        0      599
   15 176   100    23281     2531     0.56     0.00     1815      163     0.02     0.00      600        9        0      608
   15 177   101    23324     2906     0.55     0.00     1838      166     0.02     0.00      610        9        0      619
   15 178   102    23941     3219     0.54     0.00     1862      170     0.02     0.00      622        9        0      631
   15 179   103    24109     3563     0.53     0.00     1886      173     0.02     0.00      635        9        0      645
   15 180   104    25677     3906     0.53     0.00     1912      177     0.02     0.00      650       10        0      659
   15 181   105    27110     4313     0.53     0.00     1939      181     0.02     0.00      665       10        0      675
   15 182   106    28974     4875     0.54     0.00     1968      186     0.02     0.00      683       10        0      693
   15 183   107    29431     5344     0.54     0.00     1997      192     0.02     0.00      703       10        0      713
   15 184   108    30643     5469     1.35     0.00     2028      197     0.02     0.00      723       11        0      734
   15 185   109    29526     6250     1.85     0.00     2057      203     0.03     0.00      746       12        0      758
   15 186   110    28518     7125     2.14     0.00     2086      210     0.03     0.00      772       13        0      785
   15 187   111    27074     7781     2.26     0.00     2113      218     0.03     0.00      801       14        0      814
   15 188   112    27991     7656     2.26     0.00     2141      226     0.03     0.00      829       15        0      844
   15 189   113    43672     4531     2.12     0.00     2185      230     0.03     0.00      845       16        0      861
   15 190   114    51262     1969     1.73     0.00     2236      232     0.04     0.00      853       17        0      869
   15 191   115    44897     1844     1.96     0.00     2281      234     0.04     0.00      859       18        0      877
   15 192   116    35055     2469     1.80     0.00     2316      237     0.04     0.00      868       18        0      887
   15 193   117    28748     3281     1.63     0.00     2345      240     0.04     0.00      880       19        0      900
   15 194   118    22686     3719     1.50     0.00     2367      244     0.04     0.00      894       20        0      914
   15 195   119    21872     3813     1.35     0.00     2389      247     0.04     0.00      908       21        0      929
   15 196   120    22134     4531     1.25     0.00     2411      252     0.05     0.00      925       21        0      946
   15 197   121    21762     5344     1.16     0.00     2433      257     0.05     0.00      944       22        0      966
   15 198   122    20411     5906     1.09     0.00     2453      263     0.05     0.00      966       22        0      988
   15 199   123    18897     6438     1.02     0.00     2472      270     0.05     0.00      990       23        0     1012
   15 200   124    18655     6688     0.94     0.00     2491      276     0.05     0.00     1014       23        0     1037
   15 201   125    18580     6656     0.87     0.00     2510      283     0.05     0.00     1039       24        0     1062
   15 202   126    17221     7000     0.82     0.00     2527      290     0.05     0.00     1064       24        0     1088
   15 203   127    16142     7250     0.78     0.00     2543      297     0.05     0.00     1091       24        0     1115
   15 204   128    14702     7281     0.74     0.00     2558      305     0.05     0.00     1118       25        0     1142
   15 205   129    16612     6688     0.68     0.00     2574      311     0.05     0.00     1142       25        0     1167
   15 206   130    15278     6875     0.66     0.00     2589      318     0.05     0.00     1167       25        0     1193
   15 207   131    13790     6531     0.63     0.00     2603      325     0.05     0.00     1191       26        0     1217
   15 208   132    13312     5750     0.60     0.00     2617      330     0.06     0.00     1212       26        0     1238
   15 209   133    17459     4281     0.53     0.00     2634      335     0.06     0.00     1228       26        0     1254
   15 210   134    16834     3969     0.52     0.00     2651      339     0.06     0.00     1243       26        0     1269
   15 211   135    14982     3625     0.52     0.00     2666      342     0.06     0.00     1256       27        0     1283
   15 212   136    12616     3750     0.51     0.00     2678      346     0.06     0.00     1270       27        0     1297
   15 213   137    11345     4000     0.52     0.00     2690      350     0.06     0.00     1285       27        0     1312
   15 214   138     9845     4125     0.52     0.00     2700      354     0.06     0.00     1300       27        0     1327
   15 215   139     9423     4281     0.51     0.00     2709      358     0.06     0.00     1315       28        0     1343
   15 216   140     9264     4781     0.51     0.00     2718      363     0.06     0.00     1333       28        0     1361
   15 217   141     9359     5250     0.51     0.00     2728      368     0.06     0.00     1352       28        0     1380
   15 218   142     9257     5719     0.50     0.00     2737      374     0.06     0.00     1373       28        0     1401
   15 219   143     9273     6156     0.49     0.00     2746      380     0.06     0.00     1396       28        0     1424
   15 220   144     9182     6688     0.49     0.00     2755      387     0.06     0.00     1420       29        0     1449
   15 221   145    12935     6406     0.45     0.00     2768      393     0.06     0.00     1444       29        0     1473
   15 222   146    12372     6688     0.46     0.00     2781      400     0.06     0.00     1468       29        0     1497
   15 223   147    11797     7031     0.46     0.00     2793      407     0.06     0.00     1494       29        0     1523
   15 224   148    11129     7188     0.46     0.00     2804      414     0.06     0.00     1521       30        0     1550
   15 225   149    10377     7219     0.46     0.00     2814      422     0.06     0.00     1547       30        0     1577
   15 226   150     9704     7281     0.45     0.00     2824      429     0.06     0.00     1574       30        0     1604
   15 227   151    18470     5719     0.40     0.00     2842      435     0.06     0.00     1595       30        0     1625
   15 228   152    17739     5688     0.41     0.00     2860      440     0.06     0.00     1616       30        0     1646
   15 229   153    22443     4156     0.32     0.00     2882      444     0.07     0.00     1631       31        0     1661
   15 230   154    21907     3688     0.22     0.00     2904      448     0.07     0.00     1644       31        0     1675
   15 231   155    22147     2813     0.46     0.00     2926      451     0.07     0.00     1655       31        0     1686
   15 232   156    18735     2781     0.49     0.00     2945      454     0.07     0.00     1665       31        0     1696
   15 233   157    16375     2844     0.49     0.00     2962      457     0.07     0.00     1675       31        0     1707
   15 234   158    15055     3125     0.49     0.00     2977      460     0.07     0.00     1687       32        0     1718
   15 235   159    14711     3281     0.50     0.00     2991      463     0.07     0.00     1699       32        0     1731
   15 236   160    16805     3219     0.50     0.00     3008      466     0.07     0.00     1711       32        0     1743
   15 237   161    26107     2313     0.21     0.00     3034      468     0.07     0.00     1719       32        0     1751

*DSSAT Cropping System Model Ver. 4.8.5.000 -release  MAR 01, 2026 09:34:20

*RUN   4        : 4                         WHAPS048 TUDU1501    4
 MODEL          : WHAPS048 - Wheat
 EXPERIMENT     : TUDU1501 WH
 DATA PATH      :
 TREATMENT  4   : 4                         WHAPS048
  
!               |---------- Daily (g/ha) ----------|------- Cumulative (kg/ha) --------|---- Cum CO2-equiv kg[CO2eq]/ha ---|
!               Soil CO2  Net CO2      N2O      CH4 Soil CO2  Net CO2      N2O      CH4  Net CO2      N2O      CH4    Total
!                g[C]/ha  g[C]/ha  g[N]/ha  g[C]/ha kg[C]/ha kg[C]/ha kg[N]/ha kg[C]/ha    CO2eq    CO2eq    CO2eq    CO2eq
@YEAR DOY   DAS   CO2GED   CO2END   N2OGED   CH4GED    CO2EC   CO2ENC    N2OEC    CH4EC    CCEQC    NCEQC    MCEQC    TCEQC
   15 077     1    29546    -2375     0.01     0.00       30       -2     0.00     0.00       -9        0        0       -9
   15 078     2    25852    -2000     0.01     0.00       55       -4     0.00     0.00      -16        0        0      -16
   15 079     3    20121    -1281     0.02     0.00       76       -6     0.00     0.00      -21        0        0      -21
   15 080     4    13977     -781     0.02     0.00       89       -6     0.00     0.00      -24        0        0      -24
   15 081     5     9264     -531     0.02     0.00       99       -7     0.00     0.00      -26        0        0      -26
   15 082     6     2670      -31     0.02     0.00      101       -7     0.00     0.00      -26        0        0      -26
   15 083     7      146       94     0.02     0.00      102       -7     0.00     0.00      -25        0        0      -25
   15 084     8      153       63     0.02     0.00      102       -7     0.00     0.00      -25        0        0      -25
   15 085     9     1751       94     0.03     0.00      103       -7     0.00     0.00      -25        0        0      -25
   15 086    10     2967        0     0.03     0.00      106       -7     0.00     0.00      -25        0        0      -25
   15 087    11     5094     -156     0.03     0.00      112       -7     0.00     0.00      -25        0        0      -25
   15 088    12     8135     -344     0.03     0.00      120       -7     0.00     0.00      -27        0        0      -26
   15 089    13    10948     -438     0.04     0.00      131       -8     0.00     0.00      -28        0        0      -28
   15 090    14    10826     -813     0.03     0.00      141       -9     0.00     0.00      -31        0        0      -31
   15 091    15    12461    -1000     0.02     0.00      154      -10     0.00     0.00      -35        0        0      -35
   15 092    16     8826     -656     0.02     0.00      163      -10     0.00     0.00      -37        0        0      -37
   15 093    17     5194     -250     0.02     0.00      168      -10     0.00     0.00      -38        0        0      -38
   15 094    18      175       94     0.05     0.00      168      -10     0.00     0.00      -38        0        0      -38
   15 095    19       46        0     0.03     0.00      168      -10     0.00     0.00      -38        0        0      -38
   15 096    20        0        0     0.06     0.00      168      -10     0.00     0.00      -38        0        0      -38
   15 097    21        0        0     0.07     0.00      168      -10     0.00     0.00      -38        0        0      -38
   15 098    22        0        0     0.08     0.00      168      -10     0.00     0.00      -38        0        0      -38
   15 099    23        0        0     0.30     0.00      168      -10     0.00     0.00      -38        0        0      -37
   15 100    24       94       94     0.49     0.00      168      -10     0.00     0.00      -38        1        0      -37
   15 101    25     8259     -688     0.67     0.00      177      -11     0.00     0.00      -40        1        0      -39
   15 102    26    17842    -1406     0.84     0.00      194      -12     0.00     0.00      -45        1        0      -44
   15 103    27    26050    -1875     0.99     0.00      220      -14     0.00     0.00      -52        2        0      -50
   15 104    28    29424    -1938     1.10     0.00      250      -16     0.01     0.00      -59        2        0      -57
   15 105    29    29377    -1563     1.14     0.00      279      -18     0.01     0.00      -65        3        0      -62
   15 106    30    30058    -1281     1.14     0.00      309      -19     0.01     0.00      -70        3        0      -66
   15 107    31    31118     -875     1.11     0.00      340      -20     0.01     0.00      -73        4        0      -69
   15 108    32    47024    -4875     0.32     0.00      387      -25     0.01     0.00      -91        4        0      -87
   15 109    33    42479    -4719     0.71     0.00      430      -29     0.01     0.00     -108        4        0     -104
   15 110    34    35973    -4094     0.94     0.00      466      -34     0.01     0.00     -123        5        0     -118
   15 111    35    26174    -2719     0.84     0.00      492      -36     0.01     0.00     -133        5        0     -128
   15 112    36    18563    -1656     0.76     0.00      511      -38     0.01     0.00     -139        6        0     -133
   15 113    37    17208    -1313     0.69     0.00      528      -39     0.01     0.00     -144        6        0     -138
   15 114    38    16087     -969     0.63     0.00      544      -40     0.01     0.00     -147        6        0     -141
   15 115    39    17161     -781     0.57     0.00      561      -41     0.01     0.00     -150        7        0     -144
   15 116    40    19584     -906     0.50     0.00      581      -42     0.01     0.00     -154        7        0     -147
   15 117    41    22949     -938     0.44     0.00      604      -43     0.01     0.00     -157        7        0     -150
   15 118    42    30756    -2281     0.38     0.00      634      -45     0.02     0.00     -165        7        0     -158
   15 119    43    33216    -2375     0.18     0.00      668      -47     0.02     0.00     -174        7        0     -167
   15 120    44    33024    -2719     0.30     0.00      701      -50     0.02     0.00     -184        7        0     -177
   15 121    45    31946    -2625     0.31     0.00      733      -53     0.02     0.00     -194        7        0     -186
   15 122    46    19946     -750     0.12     0.00      752      -54     0.02     0.00     -197        8        0     -189
   15 123    47    17625     -906     0.16     0.00      770      -54     0.02     0.00     -200        8        0     -192
   15 124    48    19959     -531     0.10     0.00      790      -55     0.02     0.00     -202        8        0     -194
   15 125    49    30591    -1438     0.20     0.00      821      -56     0.02     0.00     -207        8        0     -199
   15 126    50    33129     -438     0.15     0.00      854      -57     0.02     0.00     -209        8        0     -201
   15 127    51    29592      938     0.11     0.00      883      -56     0.02     0.00     -205        8        0     -197
   15 128    52    32292      719     0.19     0.00      916      -55     0.02     0.00     -203        8        0     -195
   15 129    53    28579     2094     0.25     0.00      944      -53     0.02     0.00     -195        8        0     -187
   15 130    54    23166     2844     0.17     0.00      967      -50     0.02     0.00     -185        8        0     -176
   15 131    55    18534     2938     0.24     0.00      986      -47     0.02     0.00     -174        8        0     -165
   15 132    56    16471     3875     0.26     0.00     1002      -43     0.02     0.00     -160        8        0     -151
   15 133    57    16457     4813     0.26     0.00     1019      -39     0.02     0.00     -142        9        0     -133
   15 134    58    17030     5031     0.20     0.00     1036      -34     0.02     0.00     -123        9        0     -115
   15 135    59    16615     5250     0.25     0.00     1053      -28     0.02     0.00     -104        9        0      -95
   15 136    60    15760     5156     0.28     0.00     1068      -23     0.02     0.00      -85        9        0      -76
   15 137    61    15094     5156     0.31     0.00     1083      -18     0.02     0.00      -66        9        0      -57
   15 138    62    14028     4719     0.31     0.00     1097      -13     0.02     0.00      -49        9        0      -40
   15 139    63    13332     4500     0.32     0.00     1111       -9     0.02     0.00      -32        9        0      -23
   15 140    64    13060     4375     0.12     0.00     1124       -4     0.02     0.00      -16        9        0       -7
   15 141    65    13516     3844     0.10     0.00     1137       -1     0.02     0.00       -2        9        0        7
   15 142    66    14572     3031     0.16     0.00     1152        2     0.02     0.00        9        9        0       18
   15 143    67    14191     2375     0.25     0.00     1166        5     0.02     0.00       18       10        0       27
   15 144    68    12082     2250     0.20     0.00     1178        7     0.02     0.00       26       10        0       35
   15 145    69    11044     2188     0.24     0.00     1189        9     0.02     0.00       34       10        0       44
   15 146    70    11452     3281     0.28     0.00     1201       13     0.02     0.00       46       10        0       56
   15 147    71    11412     3563     0.36     0.00     1212       16     0.02     0.00       59       10        0       69
   15 148    72    10765     3594     0.40     0.00     1223       20     0.02     0.00       72       10        0       82
   15 149    73    10410     3813     0.42     0.00     1233       23     0.02     0.00       86       10        0       97
   15 150    74    10881     4344     0.42     0.00     1244       28     0.02     0.00      102       11        0      113
   15 151    75    11070     4344     0.43     0.00     1255       32     0.02     0.00      118       11        0      129
   15 152    76    11977     4844     0.43     0.00     1267       37     0.02     0.00      136       11        0      147
   15 153    77    28713     2375     1.00     0.00     1296       39     0.02     0.00      145       12        0      156
   15 154    78    32719     2688     1.33     0.00     1329       42     0.03     0.00      154       12        0      167
   15 155    79    35320     2906     1.45     0.00     1364       45     0.03     0.00      165       13        0      178
   15 156    80    37165     3281     1.43     0.00     1401       48     0.03     0.00      177       14        0      191
   15 157    81    38212     3813     1.37     0.00     1439       52     0.03     0.00      191       14        0      205
   15 158    82    48126     1688     1.21     0.00     1487       54     0.03     0.00      197       15        0      212
   15 159    83    46468     1875     1.10     0.00     1534       56     0.03     0.00      204       15        0      219
   15 160    84    56879    -1000     0.37     0.00     1591       55     0.03     0.00      200       15        0      216
   15 161    85    50728     -719     0.57     0.00     1641       54     0.03     0.00      198       16        0      214
   15 162    86    43192       94     0.74     0.00     1685       54     0.03     0.00      198       16        0      214
   15 163    87    37663      875     0.85     0.00     1722       55     0.04     0.00      201       16        0      218
   15 164    88    34402     1594     0.81     0.00     1757       56     0.04     0.00      207       17        0      224
   15 165    89    35715     1750     0.36     0.00     1792       58     0.04     0.00      214       17        0      231
   15 166    90    40000     1906     0.58     0.00     1832       60     0.04     0.00      221       17        0      238
   15 167    91    34040     3625     0.27     0.00     1866       64     0.04     0.00      234       17        0      251
   15 168    92    37128     2625     0.47     0.00     1904       66     0.04     0.00      244       18        0      261
   15 169    93    34594     2281     0.61     0.00     1938       69     0.04     0.00      252       18        0      270
   15 170    94    28712     2656     0.22     0.00     1967       71     0.04     0.00      262       18        0      280
   15 171    95    28618     1500     0.42     0.00     1996       73     0.04     0.00      267       18        0      285
   15 172    96    26361     1594     0.48     0.00     2022       74     0.04     0.00      273       18        0      291
   15 173    97    24989     1656     0.51     0.00     2047       76     0.04     0.00      279       19        0      298
   15 174    98    25385     1875     0.58     0.00     2072       78     0.04     0.00      286       19        0      305
   15 175    99    24859     1938     0.42     0.00     2097       80     0.04     0.00      293       19        0      312
   15 176   100    25075     2063     0.53     0.00     2122       82     0.04     0.00      301       19        0      320
   15 177   101    25222     2406     0.53     0.00     2147       84     0.04     0.00      310       20        0      329
   15 178   102    25716     2781     0.51     0.00     2173       87     0.04     0.00      320       20        0      340
   15 179   103    25976     3125     0.50     0.00     2199       90     0.04     0.00      331       20        0      351
   15 180   104    28057     3375     0.49     0.00     2227       94     0.04     0.00      344       20        0      364
   15 181   105    28580     3969     0.48     0.00     2256       98     0.04     0.00      358       21        0      379
   15 182   106    28559     4750     0.49     0.00     2284      102     0.04     0.00      376       21        0      396
   15 183   107    26606     5469     0.50     0.00     2311      108     0.04     0.00      396       21        0      417
   15 184   108    25027     5781     1.39     0.00     2336      114     0.05     0.00      417       22        0      439
   15 185   109    23656     6219     1.92     0.00     2360      120     0.05     0.00      440       23        0      462
   15 186   110    22571     6688     2.20     0.00     2382      127     0.05     0.00      464       24        0      488
   15 187   111    21101     7031     2.32     0.00     2403      134     0.05     0.00      490       25        0      515
   15 188   112    20695     6813     2.30     0.00     2424      140     0.06     0.00      515       26        0      541
   15 189   113    28359     5500     2.12     0.00     2452      146     0.06     0.00      535       27        0      562
   15 190   114    32538     3688     1.65     0.00     2485      150     0.06     0.00      549       28        0      576
   15 191   115    29208     3188     1.93     0.00     2514      153     0.06     0.00      560       28        0      589
   15 192   116    23581     3125     1.81     0.00     2538      156     0.06     0.00      572       29        0      601
   15 193   117    18571     3531     1.67     0.00     2556      159     0.06     0.00      585       30        0      615
   15 194   118    13573     3719     1.58     0.00     2570      163     0.07     0.00      599       31        0      629
   15 195   119    12903     3563     1.43     0.00     2583      167     0.07     0.00      612       31        0      643
   15 196   120    13078     4156     1.33     0.00     2596      171     0.07     0.00      627       32        0      659
   15 197   121    12582     4625     1.24     0.00     2608      175     0.07     0.00      644       33        0      677
   15 198   122    11450     4906     1.16     0.00     2620      180     0.07     0.00      662       33        0      695
   15 199   123    10155     5094     1.07     0.00     2630      185     0.07     0.00      681       34        0      714
   15 200   124     9627     5094     0.98     0.00     2640      191     0.07     0.00      699       34        0      733
   15 201   125     9456     5156     0.90     0.00     2649      196     0.07     0.00      718       35        0      753
   15 202   126     8630     5188     0.85     0.00     2658      201     0.07     0.00      737       35        0      772
   15 203   127     7956     5281     0.80     0.00     2666      206     0.08     0.00      757       35        0      792
   15 204   128     7143     5219     0.76     0.00     2673      211     0.08     0.00      776       36        0      811
   15 205   129     8572     4813     0.68     0.00     2681      216     0.08     0.00      793       36        0      829
   15 206   130     7876     4844     0.66     0.00     2689      221     0.08     0.00      811       36        0      848
   15 207   131     7330     4625     0.63     0.00     2697      226     0.08     0.00      828       37        0      865
[...]
   15 079     3    20121    -1281     0.02     0.00       76       -6     0.00     0.00      -21        0        0      -21
   15 080     4    13977     -781     0.02     0.00       89       -6     0.00     0.00      -24        0        0      -24
   15 081     5     9264     -531     0.02     0.00       99       -7     0.00     0.00      -26        0        0      -26
   15 082     6     2670      -31     0.02     0.00      101       -7     0.00     0.00      -26        0        0      -26
   15 083     7      146       94     0.02     0.00      102       -7     0.00     0.00      -25        0        0      -25
   15 084     8      153       63     0.02     0.00      102       -7     0.00     0.00      -25        0        0      -25
   15 085     9     1751       94     0.03     0.00      103       -7     0.00     0.00      -25        0        0      -25
   15 086    10     2967        0     0.03     0.00      106       -7     0.00     0.00      -25        0        0      -25
   15 087    11     5094     -156     0.03     0.00      112       -7     0.00     0.00      -25        0        0      -25
   15 088    12     8135     -344     0.03     0.00      120       -7     0.00     0.00      -27        0        0      -26
   15 089    13    10948     -438     0.04     0.00      131       -8     0.00     0.00      -28        0        0      -28
   15 090    14    10826     -813     0.03     0.00      141       -9     0.00     0.00      -31        0        0      -31
   15 091    15    12461    -1000     0.02     0.00      154      -10     0.00     0.00      -35        0        0      -35
   15 092    16     8826     -656     0.02     0.00      163      -10     0.00     0.00      -37        0        0      -37
   15 093    17     5194     -250     0.02     0.00      168      -10     0.00     0.00      -38        0        0      -38
   15 094    18      175       94     0.05     0.00      168      -10     0.00     0.00      -38        0        0      -38
   15 095    19       46        0     0.03     0.00      168      -10     0.00     0.00      -38        0        0      -38
   15 096    20        0        0     0.06     0.00      168      -10     0.00     0.00      -38        0        0      -38
   15 097    21        0        0     0.07     0.00      168      -10     0.00     0.00      -38        0        0      -38
   15 098    22        0        0     0.08     0.00      168      -10     0.00     0.00      -38        0        0      -38
   15 099    23        0        0     0.08     0.00      168      -10     0.00     0.00      -38        0        0      -37
   15 100    24       94       94     0.08     0.00      168      -10     0.00     0.00      -38        0        0      -37
   15 101    25     7558     -531     0.08     0.00      176      -11     0.00     0.00      -39        0        0      -39
   15 102    26    16425    -1031     0.09     0.00      192      -12     0.00     0.00      -43        0        0      -43
   15 103    27    24127    -1375     0.09     0.00      216      -13     0.00     0.00      -48        1        0      -48
   15 104    28    27478    -1469     0.09     0.00      244      -15     0.00     0.00      -54        1        0      -53
   15 105    29    27742    -1156     0.10     0.00      272      -16     0.00     0.00      -58        1        0      -57
   15 106    30    28776    -1000     0.10     0.00      300      -17     0.00     0.00      -62        1        0      -61
   15 107    31    30232     -625     0.10     0.00      331      -17     0.00     0.00      -64        1        0      -63
   15 108    32    36488    -2219     0.03     0.00      367      -20     0.00     0.00      -72        1        0      -71
   15 109    33    33926    -2594     0.07     0.00      401      -22     0.00     0.00      -82        1        0      -81
   15 110    34    27336    -1938     0.10     0.00      428      -24     0.00     0.00      -89        1        0      -88
   15 111    35    20837    -1406     0.11     0.00      449      -26     0.00     0.00      -94        1        0      -93
   15 112    36    15815     -969     0.11     0.00      465      -27     0.00     0.00      -97        1        0      -96
   15 113    37    15234     -781     0.11     0.00      480      -27     0.00     0.00     -100        1        0      -99
   15 114    38    14743     -594     0.12     0.00      495      -28     0.00     0.00     -102        1        0     -101
   15 115    39    15837     -500     0.12     0.00      511      -28     0.00     0.00     -104        1        0     -103
   15 116    40    17480     -313     0.12     0.00      528      -29     0.00     0.00     -105        1        0     -104
   15 117    41    19759      -94     0.13     0.00      548      -29     0.00     0.00     -106        1        0     -105
   15 118    42    22682     -188     0.11     0.00      571      -29     0.00     0.00     -106        1        0     -105
   15 119    43    19535     1031     0.06     0.00      590      -28     0.00     0.00     -103        1        0     -101
   15 120    44    17801     1063     0.12     0.00      608      -27     0.00     0.00      -99        1        0      -97
   15 121    45    17819      938     0.14     0.00      626      -26     0.00     0.00      -95        1        0      -94
   15 122    46    12741     1031     0.05     0.00      639      -25     0.00     0.00      -92        1        0      -90
   15 123    47    11466      719     0.08     0.00      650      -24     0.00     0.00      -89        1        0      -87
   15 124    48    11424     1531     0.05     0.00      662      -23     0.00     0.00      -83        1        0      -82
   15 125    49    13731     2781     0.11     0.00      675      -20     0.00     0.00      -73        2        0      -72
   15 126    50    15682     3938     0.09     0.00      691      -16     0.00     0.00      -59        2        0      -57
   15 127    51    15426     4469     0.06     0.00      706      -12     0.00     0.00      -42        2        0      -41
   15 128    52    17092     4500     0.12     0.00      723       -7     0.00     0.00      -26        2        0      -24
   15 129    53    17866     4750     0.16     0.00      741       -2     0.00     0.00       -8        2        0       -7
   15 130    54    17011     4406     0.10     0.00      758        2     0.00     0.00        8        2        0       10
   15 131    55    15825     3625     0.16     0.00      774        6     0.00     0.00       21        2        0       23
   15 132    56    15718     4063     0.18     0.00      790       10     0.00     0.00       36        2        0       38
   15 133    57    16604     4750     0.19     0.00      806       15     0.00     0.00       54        2        0       56
   15 134    58    17318     4969     0.12     0.00      824       20     0.00     0.00       72        2        0       74
   15 135    59    17419     5031     0.17     0.00      841       25     0.00     0.00       90        2        0       92
   15 136    60    16828     4906     0.20     0.00      858       30     0.00     0.00      108        2        0      110
   15 137    61    16333     4875     0.24     0.00      874       34     0.01     0.00      126        2        0      129
   15 138    62    15379     4438     0.25     0.00      890       39     0.01     0.00      142        2        0      145
   15 139    63    14723     4188     0.26     0.00      904       43     0.01     0.00      158        3        0      160
   15 140    64    14296     4219     0.09     0.00      919       47     0.01     0.00      173        3        0      176
   15 141    65    14296     3563     0.08     0.00      933       51     0.01     0.00      186        3        0      189
   15 142    66    14778     2969     0.13     0.00      948       54     0.01     0.00      197        3        0      200
   15 143    67    14463     2313     0.22     0.00      962       56     0.01     0.00      206        3        0      209
   15 144    68    13204     1969     0.17     0.00      976       58     0.01     0.00      213        3        0      216
   15 145    69    12622     1781     0.20     0.00      988       60     0.01     0.00      220        3        0      223
   15 146    70    13477     2750     0.24     0.00     1002       63     0.01     0.00      230        3        0      233
   15 147    71    13780     3000     0.31     0.00     1015       66     0.01     0.00      241        3        0      244
   15 148    72    13436     2969     0.34     0.00     1029       69     0.01     0.00      252        3        0      255
   15 149    73    13335     3094     0.35     0.00     1042       72     0.01     0.00      263        4        0      266
   15 150    74    14111     3500     0.36     0.00     1056       75     0.01     0.00      276        4        0      279
   15 151    75    14536     3469     0.37     0.00     1071       79     0.01     0.00      288        4        0      292
   15 152    76    15701     3906     0.38     0.00     1087       83     0.01     0.00      303        4        0      307
   15 153    77    18166     4906     0.39     0.00     1105       87     0.01     0.00      321        4        0      325
   15 154    78    20614     5531     0.41     0.00     1125       93     0.01     0.00      341        4        0      346
   15 155    79    22918     5813     0.42     0.00     1148       99     0.01     0.00      362        5        0      367
   15 156    80    25520     5813     0.44     0.00     1174      105     0.01     0.00      384        5        0      389
   15 157    81    28806     6063     0.45     0.00     1203      111     0.01     0.00      406        5        0      411
   15 158    82    32455     5938     0.42     0.00     1235      117     0.01     0.00      428        5        0      433
   15 159    83    35925     5219     0.44     0.00     1271      122     0.01     0.00      447        5        0      452
   15 160    84    39606     3813     0.14     0.00     1311      126     0.01     0.00      461        6        0      466
   15 161    85    42102     1906     0.25     0.00     1353      128     0.01     0.00      468        6        0      474
   15 162    86    38902     1469     0.38     0.00     1392      129     0.01     0.00      473        6        0      479
   15 163    87    36063     1563     0.49     0.00     1428      131     0.01     0.00      479        6        0      485
   15 164    88    34126     1938     0.51     0.00     1462      132     0.01     0.00      486        6        0      492
   15 165    89    36073     2219     0.22     0.00     1498      135     0.01     0.00      494        6        0      501
   15 166    90    40584     2438     0.39     0.00     1538      137     0.01     0.00      503        7        0      510
   15 167    91    34330     4094     0.19     0.00     1573      141     0.01     0.00      518        7        0      525
   15 168    92    36401     3094     0.36     0.00     1609      144     0.01     0.00      530        7        0      536
   15 169    93    34205     2500     0.51     0.00     1643      147     0.02     0.00      539        7        0      546
   15 170    94    27641     2969     0.18     0.00     1671      150     0.02     0.00      550        7        0      557
   15 171    95    25905     2219     0.37     0.00     1697      152     0.02     0.00      558        7        0      565
   15 172    96    24400     2094     0.45     0.00     1721      154     0.02     0.00      566        8        0      573
   15 173    97    23240     2125     0.50     0.00     1744      156     0.02     0.00      573        8        0      581
   15 174    98    23657     2281     0.56     0.00     1768      159     0.02     0.00      582        8        0      590
   15 175    99    23153     2375     0.44     0.00     1791      161     0.02     0.00      590        8        0      599
   15 176   100    23281     2531     0.56     0.00     1815      163     0.02     0.00      600        9        0      608
   15 177   101    23324     2906     0.55     0.00     1838      166     0.02     0.00      610        9        0      619
   15 178   102    23941     3219     0.54     0.00     1862      170     0.02     0.00      622        9        0      631
   15 179   103    24109     3563     0.53     0.00     1886      173     0.02     0.00      635        9        0      645
   15 180   104    25677     3906     0.53     0.00     1912      177     0.02     0.00      650       10        0      659
   15 181   105    27110     4313     0.53     0.00     1939      181     0.02     0.00      665       10        0      675
   15 182   106    28974     4875     0.54     0.00     1968      186     0.02     0.00      683       10        0      693
   15 183   107    29431     5344     0.54     0.00     1997      192     0.02     0.00      703       10        0      713
   15 184   108    29251     5813     0.54     0.00     2026      197     0.02     0.00      724       11        0      735
   15 185   109    28365     6563     0.54     0.00     2055      204     0.02     0.00      748       11        0      759
   15 186   110    27576     7344     0.55     0.00     2082      211     0.02     0.00      775       11        0      786
   15 187   111    26350     7969     0.55     0.00     2109      219     0.02     0.00      805       11        0      816
   15 188   112    26808     7938     0.55     0.00     2135      227     0.02     0.00      834       12        0      845
   15 189   113    32093     7438     0.50     0.00     2168      235     0.03     0.00      861       12        0      873
   15 190   114    33990     6281     0.43     0.00     2202      241     0.03     0.00      884       12        0      896
   15 191   115    33932     4594     0.53     0.00     2236      245     0.03     0.00      901       12        0      913
   15 192   116    33053     2969     0.55     0.00     2269      248     0.03     0.00      912       13        0      924
   15 193   117    27611     3563     0.55     0.00     2296      252     0.03     0.00      925       13        0      938
   15 194   118    22031     3844     0.57     0.00     2318      256     0.03     0.00      939       13        0      952
   15 195   119    21332     4000     0.57     0.00     2340      260     0.03     0.00      954       13        0      967
   15 196   120    21720     4656     0.58     0.00     2361      265     0.03     0.00      971       14        0      984
   15 197   121    21478     5406     0.59     0.00     2383      270     0.03     0.00      991       14        0     1004
   15 198   122    20242     5969     0.60     0.00     2403      276     0.03     0.00     1012       14        0     1027
   15 199   123    18807     6469     0.61     0.00     2422      282     0.03     0.00     1036       14        0     1051
   15 200   124    18583     6688     0.60     0.00     2440      289     0.03     0.00     1061       15        0     1075
   15 201   125    18528     6656     0.59     0.00     2459      296     0.03     0.00     1085       15        0     1100
   15 202   126    17218     7000     0.60     0.00     2476      303     0.03     0.00     1111       15        0     1126
   15 203   127    16171     7281     0.60     0.00     2492      310     0.03     0.00     1138       16        0     1153
   15 204   128    14753     7281     0.59     0.00     2507      317     0.03     0.00     1164       16        0     1180
   15 205   129    16668     6688     0.56     0.00     2524      324     0.03     0.00     1189       16        0     1205
   15 206   130    15363     6844     0.57     0.00     2539      331     0.03     0.00     1214       16        0     1230
   15 207   131    13889     6531     0.56     0.00     2553      337     0.04     0.00     1238       17        0     1255
   15 208   132    13435     5750     0.54     0.00     2566      343     0.04     0.00     1259       17        0     1276
   15 209   133    17718     4219     0.49     0.00     2584      347     0.04     0.00     1275       17        0     1292
   15 210   134    17158     3875     0.49     0.00     2601      351     0.04     0.00     1289       17        0     1306
   15 211   135    15319     3563     0.49     0.00     2617      355     0.04     0.00     1302       18        0     1319
   15 212   136    12913     3688     0.49     0.00     2629      358     0.04     0.00     1315       18        0     1333
   15 213   137    11634     3938     0.50     0.00     2641      362     0.04     0.00     1330       18        0     1348
   15 214   138    10096     4094     0.50     0.00     2651      366     0.04     0.00     1345       18        0     1363
   15 215   139     9667     4219     0.50     0.00     2661      371     0.04     0.00     1360       18        0     1379
   15 216   140     9497     4688     0.50     0.00     2670      375     0.04     0.00     1378       19        0     1396
   15 217   141     9581     5250     0.49     0.00     2680      381     0.04     0.00     1397       19        0     1416
   15 218   142     9467     5656     0.49     0.00     2689      386     0.04     0.00     1418       19        0     1437
   15 219   143     9468     6125     0.49     0.00     2699      392     0.04     0.00     1440       19        0     1459
   15 220   144     9340     6688     0.48     0.00     2708      399     0.04     0.00     1465       20        0     1484
   15 221   145    13337     6281     0.45     0.00     2722      405     0.04     0.00     1488       20        0     1507
   15 222   146    12743     6625     0.46     0.00     2734      412     0.04     0.00     1512       20        0     1532
   15 223   147    12130     6969     0.46     0.00     2746      419     0.04     0.00     1538       20        0     1558
   15 224   148    11415     7125     0.46     0.00     2758      426     0.04     0.00     1564       20        0     1584
   15 225   149    10610     7219     0.46     0.00     2768      433     0.04     0.00     1590       21        0     1611
   15 226   150     9885     7188     0.46     0.00     2778      440     0.04     0.00     1617       21        0     1637
   15 227   151    19510     5500     0.40     0.00     2798      446     0.05     0.00     1637       21        0     1658
   15 228   152    18843     5406     0.42     0.00     2817      451     0.05     0.00     1657       21        0     1678
   15 229   153    23948     3781     0.32     0.00     2841      455     0.05     0.00     1670       21        0     1692
   15 230   154    23113     3375     0.23     0.00     2864      459     0.05     0.00     1683       22        0     1704
   15 231   155    23509     2531     0.48     0.00     2887      461     0.05     0.00     1692       22        0     1714
   15 232   156    19827     2500     0.51     0.00     2907      464     0.05     0.00     1701       22        0     1723
   15 233   157    17248     2688     0.51     0.00     2924      466     0.05     0.00     1711       22        0     1733
   15 234   158    15786     2906     0.52     0.00     2940      469     0.05     0.00     1722       22        0     1744
   15 235   159    15364     3125     0.53     0.00     2956      472     0.05     0.00     1733       23        0     1756
   15 236   160    17660     3031     0.53     0.00     2973      475     0.05     0.00     1744       23        0     1767
   15 237   161    26908     2125     0.22     0.00     3000      477     0.05     0.00     1752       23        0     1775
