*N2O emissions output file

*DSSAT Cropping System Model Ver. 4.8.5.000 -release  MAR 01, 2026 09:34:20

*RUN   1        : 1                         WHAPS048 TUDU1501    1
 MODEL          : WHAPS048 - Wheat
 EXPERIMENT     : TUDU1501 WH
 DATA PATH      :
 TREATMENT  1   : 1                         WHAPS048
  
!              |------------------------------ Cumulative -----------------------------|------------------------------ Daily ----------------------------------|
!               N2Oemit  N2emit  NOemit   Denit  Nitrif   N2O-denit+nit      N2      NO N2Oemit  N2emit  NOemit   Denit  Nitrif   N2O-denit+nit      N2      NO   Denitrification (g[N]/ha) by soil depth (cm):                                   Nitrification (g[N]/ha) by soil depth (cm):                                     N2O flux (g[N]/ha) by soil depth (cm):                                          N2 flux (g[N]/ha) by soil depth (cm):                                           NO flux (g[N]/ha) by soil depth (cm):
!                 kg/ha   kg/ha   kg/ha   kg/ha   kg/ha   kg/ha   kg/ha   kg/ha   kg/ha    g/ha    g/ha    g/ha    g/ha    g/ha    g/ha    g/ha    g/ha    g/ha     0-5    5-15   15-20   20-30   30-40   40-50   50-60   60-70   70-90  90-210     0-5    5-15   15-20   20-30   30-40   40-50   50-60   60-70   70-90  90-210     0-5    5-15   15-20   20-30   30-40   40-50   50-60   60-70   70-90  90-210     0-5    5-15   15-20   20-30   30-40   40-50   50-60   60-70   70-90  90-210     0-5    5-15   15-20   20-30   30-40   40-50   50-60   60-70   70-90  90-210
@YEAR DOY   DAS   N2OEC    N2EC    NOEC    NDNC    NITC   N2ODC   N2ONC   N2FLC   NOFLC  N2OGED   N2GED   NOGED    NDND   NITRD   N2ODD   N2OND   N2FLD   NOFLD   NDN1D   NDN2D   NDN3D   NDN4D   NDN5D   NDN6D   NDN7D   NDN8D   NDN9D   NDN10   NIT1D   NIT2D   NIT3D   NIT4D   NIT5D   NIT6D   NIT7D   NIT8D   NIT9D   NIT10   N2O1D   N2O2D   N2O3D   N2O4D   N2O5D   N2O6D   N2O7D   N2O8D   N2O9D   N2O10   N2F1D   N2F2D   N2F3D   N2F4D   N2F5D   N2F6D   N2F7D   N2F8D   N2F9D   N2F10   NOF1D   NOF2D   NOF3D   NOF4D   NOF5D   NOF6D   NOF7D   NOF8D   NOF9D   NOF10
   15 077     1    0.00    0.00    0.00    0.00     1.6   0.000   0.002   0.000   0.002     0.0     0.0     0.0     0.0    1640    0.00    1.64    0.00    2.21     0.0     0.0     0.0     0.0     0.0     0.0     0.0     0.0     0.0     0.0     32.     66.     34.     70.     71.     72.     73.     75.    156.    160.     0.0     0.1     0.0     0.1     0.1     0.1     0.1     0.1     0.2     0.2     0.0     0.0     0.0     0.0     0.0     0.0     0.0     0.0     0.0     0.0     0.1     0.2     0.1     0.2     0.1     0.1     0.1     0.1     0.2     0.2
   15 078     2    0.00    0.00    0.00    0.00     3.0   0.000   0.003   0.000   0.004     0.0     0.0     0.0     0.0    1371    0.00    1.37    0.00    1.75     0.0     0.0     0.0     0.0     0.0     0.0     0.0     0.0     0.0     0.0     18.     38.     29.     59.     61.     61.     63.     64.    132.    136.     0.0     0.0     0.0     0.1     0.1     0.1     0.1     0.1     0.1     0.1     0.0     0.0     0.0     0.0     0.0     0.0     0.0     0.0     0.0     0.0     0.0     0.1     0.1     0.1     0.1     0.1     0.1     0.1     0.1     0.1
   15 079     3    0.00    0.00    0.00    0.00     4.1   0.000   0.004   0.000   0.005     0.0     0.0     0.0     0.0    1135    0.00    1.14    0.00    1.41     0.0     0.0     0.0     0.0     0.0     0.0     0.0     0.0     0.0     0.0      8.     18.     24.     50.     51.     51.     53.     53.    111.    114.     0.0     0.0     0.0     0.0     0.1     0.1     0.1     0.1     0.1     0.1     0.0     0.0     0.0     0.0     0.0     0.0     0.0     0.0     0.0     0.0     0.0     0.1     0.1     0.1     0.1     0.1     0.1     0.1     0.1     0.1
   15 080     4    0.00    0.00    0.00    0.00     5.1   0.000   0.005   0.000   0.010     0.0     0.0     0.1     0.0     931    0.00    0.93    0.00    4.19     0.0     0.0     0.0     0.0     0.0     0.0     0.0     0.0     0.0     0.0      0.      0.     20.     41.     42.     43.     44.     45.     93.     96.     0.0     0.0     0.0     0.0     0.0     0.0     0.0     0.0     0.1     0.1     0.0     0.0     0.0     0.0     0.0     0.0     0.0     0.0     0.0     0.0     0.0     0.0     0.2     0.3     0.3     0.3     0.2     0.2     0.4     0.4
   15 081     5    0.00    0.00    0.00    0.00     5.9   0.000   0.006   0.000   0.012     0.0     0.0     0.1     0.0     785    0.00    0.79    0.00    2.87     0.0     0.0     0.0     0.0     0.0     0.0     0.0     0.0     0.0     0.0      0.      0.     17.     35.     36.     36.     37.     38.     78.     81.     0.0     0.0     0.0     0.0     0.0     0.0     0.0     0.0     0.1     0.1     0.0     0.0     0.0     0.0     0.0     0.0     0.0     0.0     0.0     0.0     0.0     0.0     0.1     0.2     0.2     0.2     0.2     0.2     0.3     0.3
   15 082     6    0.00    0.00    0.00    0.00     6.5   0.000   0.007   0.000   0.014     0.0     0.0     0.1     0.0     659    0.00    0.66    0.00    1.95     0.0     0.0     0.0     0.0     0.0     0.0     0.0     0.0     0.0     0.0      0.      0.     14.     29.     30.     30.     31.     31.     65.     67.     0.0     0.0     0.0     0.0     0.0     0.0     0.0     0.0     0.1     0.1     0.0     0.0     0.0     0.0     0.0     0.0     0.0     0.0     0.0     0.0     0.0     0.0     0.1     0.2     0.1     0.1     0.1     0.1     0.2     0.2
   15 083     7    0.00    0.00    0.00    0.00     7.1   0.000   0.007   0.000   0.016     0.0     0.0     0.1     0.0     566    0.00    0.57    0.00    1.36     0.0     0.0     0.0     0.0     0.0     0.0     0.0     0.0     0.0     0.0      0.      0.     12.     25.     25.     26.     26.     27.     56.     58.     0.0     0.0     0.0     0.0     0.0     0.0     0.0     0.0     0.1     0.1     0.0     0.0     0.0     0.0     0.0     0.0     0.0     0.0     0.0     0.0     0.0     0.0     0.1     0.1     0.1     0.1     0.1     0.1     0.1     0.1
   15 084     8    0.00    0.00    0.00    0.00     7.6   0.000   0.008   0.000   0.017     0.0     0.0     0.1     0.0     518    0.00    0.52    0.00    1.01     0.0     0.0     0.0     0.0     0.0     0.0     0.0     0.0     0.0     0.0      0.      0.     11.     23.     23.     24.     24.     25.     51.     53.     0.0     0.0     0.0     0.0     0.0     0.0     0.0     0.0     0.1     0.1     0.0     0.0     0.0     0.0     0.0     0.0     0.0     0.0     0.0     0.0     0.0     0.0     0.1     0.1     0.1     0.1     0.1     0.1     0.1     0.1
   15 085     9    0.00    0.00    0.00    0.00     8.1   0.000   0.008   0.000   0.018     0.0     0.0     0.1     0.0     493    0.00    0.49    0.00    0.79     0.0     0.0     0.0     0.0     0.0     0.0     0.0     0.0     0.0     0.0      0.      0.     11.     22.     23.     23.     23.     24.     49.     50.     0.0     0.0     0.0     0.0     0.0     0.0     0.0     0.0     0.0     0.1     0.0     0.0     0.0     0.0     0.0     0.0     0.0     0.0     0.0     0.0     0.0     0.0     0.0     0.1     0.1     0.1     0.0     0.0     0.1     0.1
   15 086    10    0.00    0.00    0.00    0.00     8.6   0.000   0.009   0.000   0.018     0.0     0.0     0.1     0.0     455    0.00    0.46    0.00    0.59     0.0     0.0     0.0     0.0     0.0     0.0     0.0     0.0     0.0     0.0      0.      0.     10.     21.     21.     21.     22.     22.     45.     47.     0.0     0.0     0.0     0.0     0.0     0.0     0.0     0.0     0.0     0.0     0.0     0.0     0.0     0.0     0.0     0.0     0.0     0.0     0.0     0.0     0.0     0.0     0.0     0.0     0.0     0.0     0.0     0.0     0.1     0.1
   15 087    11    0.00    0.00    0.00    0.00     9.0   0.000   0.009   0.000   0.019     0.0     0.0     0.1     0.0     426    0.00    0.43    0.00    0.52     0.0     0.0     0.0     0.0     0.0     0.0     0.0     0.0     0.0     0.0      0.      0.     10.     20.     20.     20.     21.     21.     43.     44.     0.0     0.0     0.0     0.0     0.0     0.0     0.0     0.0     0.0     0.0     0.0     0.0     0.0     0.0     0.0     0.0     0.0     0.0     0.0     0.0     0.0     0.0     0.0     0.0     0.0     0.0     0.0     0.0     0.0     0.0
   15 088    12    0.00    0.00    0.00    0.00     9.4   0.000   0.009   0.000   0.019     0.0     0.0     0.1     0.0     405    0.00    0.40    0.00    0.49     0.0     0.0     0.0     0.0     0.0     0.0     0.0     0.0     0.0     0.0      0.      0.     10.     20.     20.     20.     20.     20.     41.     41.     0.0     0.0     0.0     0.0     0.0     0.0     0.0     0.0     0.0     0.0     0.0     0.0     0.0     0.0     0.0     0.0     0.0     0.0     0.0     0.0     0.0     0.0     0.0     0.0     0.0     0.0     0.0     0.0     0.0     0.0
   15 089    13    0.00    0.00    0.00    0.00     9.8   0.000   0.010   0.000   0.020     0.0     0.0     0.1     0.0     383    0.00    0.38    0.00    0.47     0.0     0.0     0.0     0.0     0.0     0.0     0.0     0.0     0.0     0.0      0.      0.     10.     19.     19.     19.     19.     19.     39.     39.     0.0     0.0     0.0     0.0     0.0     0.0     0.0     0.0     0.0     0.0     0.0     0.0     0.0     0.0     0.0     0.0     0.0     0.0     0.0     0.0     0.0     0.0     0.0     0.0     0.0     0.0     0.0     0.0     0.0     0.0
   15 090    14    0.00    0.00    0.00    0.00    10.1   0.000   0.010   0.000   0.020     0.0     0.0     0.1     0.0     341    0.00    0.34    0.00    0.42     0.0     0.0     0.0     0.0     0.0     0.0     0.0     0.0     0.0     0.0      0.      0.      9.     17.     17.     17.     17.     17.     35.     35.     0.0     0.0     0.0     0.0     0.0     0.0     0.0     0.0     0.0     0.0     0.0     0.0     0.0     0.0     0.0     0.0     0.0     0.0     0.0     0.0     0.0     0.0     0.0     0.0     0.0     0.0     0.0     0.0     0.0     0.0
   15 091    15    0.00    0.00    0.00    0.00    10.4   0.000   0.010   0.000   0.020     0.0     0.0     0.1     0.0     318    0.00    0.32    0.00    0.39     0.0     0.0     0.0     0.0     0.0     0.0     0.0     0.0     0.0     0.0      0.      0.      8.     16.     16.     16.     16.     16.     32.     32.     0.0     0.0     0.0     0.0     0.0     0.0     0.0     0.0     0.0     0.0     0.0     0.0     0.0     0.0     0.0     0.0     0.0     0.0     0.0     0.0     0.0     0.0     0.0     0.0     0.0     0.0     0.0     0.0     0.0     0.0
   15 092    16    0.00    0.00    0.00    0.00    10.7   0.000   0.011   0.000   0.021     0.0     0.0     0.1     0.0     280    0.00    0.28    0.00    0.34     0.0     0.0     0.0     0.0     0.0     0.0     0.0     0.0     0.0     0.0      0.      0.      7.     14.     14.     14.     14.     14.     28.     29.     0.0     0.0     0.0     0.0     0.0     0.0     0.0     0.0     0.0     0.0     0.0     0.0     0.0     0.0     0.0     0.0     0.0     0.0     0.0     0.0     0.0     0.0     0.0     0.0     0.0     0.0     0.0     0.0     0.0     0.0
   15 093    17    0.00    0.00    0.00    0.00    11.0   0.000   0.011   0.000   0.021     0.0     0.0     0.1     0.0     247    0.00    0.25    0.00    0.29     0.0     0.0     0.0     0.0     0.0     0.0     0.0     0.0     0.0     0.0      0.      0.      5.     13.     13.     12.     13.     13.     25.     25.     0.0     0.0     0.0     0.0     0.0     0.0     0.0     0.0     0.0     0.0     0.0     0.0     0.0     0.0     0.0     0.0     0.0     0.0     0.0     0.0     0.0     0.0     0.0     0.0     0.0     0.0     0.0     0.0     0.0     0.0
   15 094    18    0.00    0.00    0.00    0.00    11.2   0.000   0.011   0.000   0.021     0.0     0.0     0.2     0.0     213    0.00    0.21    0.00    0.26     0.0     0.0     0.0     0.0     0.0     0.0     0.0     0.0     0.0     0.0      0.      0.      5.     11.     11.     11.     11.     11.     21.     22.     0.0     0.0     0.0     0.0     0.0     0.0     0.0     0.0     0.0     0.0     0.0     0.0     0.0     0.0     0.0     0.0     0.0     0.0     0.0     0.0     0.0     0.0     0.0     0.0     0.0     0.0     0.0     0.0     0.0     0.0
   15 095    19    0.00    0.00    0.00    0.00    11.4   0.000   0.011   0.000   0.022     0.0     0.0     0.1     0.0     186    0.00    0.19    0.00    0.22     0.0     0.0     0.0     0.0     0.0     0.0     0.0     0.0     0.0     0.0      0.      0.      4.      8.      8.      9.      9.      9.     19.     19.     0.0     0.0     0.0     0.0     0.0     0.0     0.0     0.0     0.0     0.0     0.0     0.0     0.0     0.0     0.0     0.0     0.0     0.0     0.0     0.0     0.0     0.0     0.0     0.0     0.0     0.0     0.0     0.0     0.0     0.0
   15 096    20    0.00    0.00    0.00    0.00    11.5   0.000   0.012   0.000   0.022     0.1     0.0     0.2     0.0     161    0.00    0.16    0.00    0.19     0.0     0.0     0.0     0.0     0.0     0.0     0.0     0.0     0.0     0.0      0.      0.      4.      7.      8.      8.      8.      8.     16.     16.     0.0     0.0     0.0     0.0     0.0     0.0     0.0     0.0     0.0     0.0     0.0     0.0     0.0     0.0     0.0     0.0     0.0     0.0     0.0     0.0     0.0     0.0     0.0     0.0     0.0     0.0     0.0     0.0     0.0     0.0
   15 097    21    0.00    0.00    0.00    0.00    11.7   0.000   0.012   0.000   0.022     0.1     0.0     0.2     0.0     144    0.00    0.14    0.00    0.17     0.0     0.0     0.0     0.0     0.0     0.0     0.0     0.0     0.0     0.0      0.      0.      4.      7.      7.      7.      7.      7.     14.     15.     0.0     0.0     0.0     0.0     0.0     0.0     0.0     0.0     0.0     0.0     0.0     0.0     0.0     0.0     0.0     0.0     0.0     0.0     0.0     0.0     0.0     0.0     0.0     0.0     0.0     0.0     0.0     0.0     0.0     0.0
   15 098    22    0.00    0.00    0.00    0.00    11.8   0.000   0.012   0.000   0.022     0.1     0.0     0.3     0.0     134    0.00    0.13    0.00    0.17     0.0     0.0     0.0     0.0     0.0     0.0     0.0     0.0     0.0     0.0      0.      0.      4.      7.      7.      7.      7.      7.     13.     13.     0.0     0.0     0.0     0.0     0.0     0.0     0.0     0.0     0.0     0.0     0.0     0.0     0.0     0.0     0.0     0.0     0.0     0.0     0.0     0.0     0.0     0.0     0.0     0.0     0.0     0.0     0.0     0.0     0.0     0.0
   15 099    23    0.00    0.00    0.00    0.00    12.8   0.000   0.013   0.000   0.025     0.2     0.0     0.7     0.0     993    0.00    0.99    0.00    2.87     0.0     0.0     0.0     0.0     0.0     0.0     0.0     0.0     0.0     0.0    832.     33.      4.      7.      7.      6.      7.      7.     13.     13.     0.8     0.0     0.0     0.0     0.0     0.0     0.0     0.0     0.0     0.0     0.0     0.0     0.0     0.0     0.0     0.0     0.0     0.0     0.0     0.0     2.6     0.1     0.0     0.0     0.0     0.0     0.0     0.0     0.0     0.0
   15 100    24    0.00    0.00    0.00    0.00    14.5   0.000   0.014   0.000   0.030     0.5     0.0     1.5     0.0    1681    0.00    1.68    0.00    5.13     0.0     0.0     0.0     0.0     0.0     0.0     0.0     0.0     0.0     0.0   1493.     62.      4.      7.      7.      7.      7.      7.     13.     13.     1.5     0.1     0.0     0.0     0.0     0.0     0.0     0.0     0.0     0.0     0.0     0.0     0.0     0.0     0.0     0.0     0.0     0.0     0.0     0.0     4.8     0.2     0.0     0.0     0.0     0.0     0.0     0.0     0.0     0.0
   15 101    25    0.00    0.00    0.01    0.00    16.8   0.000   0.017   0.000   0.038     0.8     0.0     2.5     0.0    2333    0.00    2.33    0.00    7.45     0.0     0.0     0.0     0.0     0.0     0.0     0.0     0.0     0.0     0.0   2116.     88.      4.      7.      7.      7.      7.      7.     13.     13.     2.1     0.1     0.0     0.0     0.0     0.0     0.0     0.0     0.0     0.0     0.0     0.0     0.0     0.0     0.0     0.0     0.0     0.0     0.0     0.0     7.0     0.3     0.0     0.0     0.0     0.0     0.0     0.0     0.0     0.0
   15 102    26    0.00    0.00    0.01    0.00    19.7   0.000   0.020   0.000   0.047     1.2     0.0     3.8     0.0    2923    0.00    2.92    0.00    9.88     0.0     0.0     0.0     0.0     0.0     0.0     0.0     0.0     0.0     0.0   2680.    108.      4.      8.      8.      7.      7.      7.     14.     14.     2.7     0.1     0.0     0.0     0.0     0.0     0.0     0.0     0.0     0.0     0.0     0.0     0.0     0.0     0.0     0.0     0.0     0.0     0.0     0.0     9.4     0.4     0.0     0.0     0.0     0.0     0.0     0.0     0.0     0.0
   15 103    27    0.00    0.00    0.02    0.00    23.1   0.000   0.023   0.000   0.059     1.6     0.0     5.4     0.0    3360    0.00    3.36    0.00   12.04     0.0     0.0     0.0     0.0     0.0     0.0     0.0     0.0     0.0     0.0   3099.    114.      5.      9.      9.      8.      8.      8.     15.     15.     3.1     0.1     0.0     0.0     0.0     0.0     0.0     0.0     0.0     0.0     0.0     0.0     0.0     0.0     0.0     0.0     0.0     0.0     0.0     0.0    11.5     0.4     0.0     0.0     0.0     0.0     0.0     0.0     0.0     0.0
   15 104    28    0.01    0.00    0.02    0.00    26.3   0.000   0.026   0.000   0.072     1.9     0.0     6.7     0.0    3237    0.00    3.24    0.00   12.28     0.0     0.0     0.0     0.0     0.0     0.0     0.0     0.0     0.0     0.0   2986.     95.      5.     10.     10.      9.      9.      9.     16.     16.     3.0     0.1     0.0     0.0     0.0     0.0     0.0     0.0     0.0     0.0     0.0     0.0     0.0     0.0     0.0     0.0     0.0     0.0     0.0     0.0    11.8     0.3     0.0     0.0     0.0     0.0     0.0     0.0     0.0     0.0
   15 105    29    0.01    0.00    0.03    0.00    29.1   0.000   0.029   0.000   0.083     2.1     0.0     7.7     0.0    2764    0.00    2.76    0.00   11.03     0.0     0.0     0.0     0.0     0.0     0.0     0.0     0.0     0.0     0.0   2534.     68.      6.     10.     10.      9.      9.      9.     17.     16.     2.5     0.1     0.0     0.0     0.0     0.0     0.0     0.0     0.0     0.0     0.0     0.0     0.0     0.0     0.0     0.0     0.0     0.0     0.0     0.0    10.6     0.2     0.0     0.0     0.0     0.0     0.0     0.0     0.0     0.0
   15 106    30    0.01    0.00    0.04    0.00    31.5   0.000   0.031   0.000   0.093     2.2     0.0     8.3     0.0    2401    0.00    2.40    0.00   10.01     0.0     0.0     0.0     0.0     0.0     0.0     0.0     0.0     0.0     0.0   2185.     44.      6.     11.     11.     10.     10.     10.     17.     17.     2.2     0.0     0.0     0.0     0.0     0.0     0.0     0.0     0.0     0.0     0.0     0.0     0.0     0.0     0.0     0.0     0.0     0.0     0.0     0.0     9.6     0.1     0.0     0.0     0.0     0.0     0.0     0.0     0.0     0.0
   15 107    31    0.01    0.00    0.05    0.00    33.7   0.000   0.034   0.000   0.102     2.2     0.0     8.6     0.0    2172    0.00    2.17    0.00    9.28     0.0     0.0     0.0     0.0     0.0     0.0     0.0     0.0     0.0     0.0   1964.     24.      6.     12.     12.     11.     11.     11.     19.     18.     2.0     0.0     0.0     0.0     0.0     0.0     0.0     0.0     0.0     0.0     0.0     0.0     0.0     0.0     0.0     0.0     0.0     0.0     0.0     0.0     9.0     0.1     0.0     0.0     0.0     0.0     0.0     0.0     0.0     0.0
   15 108    32    0.01    0.00    0.05    0.00    35.0   0.000   0.035   0.000   0.103     0.6     0.0     2.3     0.0    1339    0.00    1.34    0.00    0.72     0.0     0.0     0.0     0.0     0.0     0.0     0.0     0.0     0.0     0.0   1159.      0.      4.     10.     11.     10.     11.     11.     19.     19.     1.2     0.0     0.0     0.0     0.0     0.0     0.0     0.0     0.0     0.0     0.0     0.0     0.0     0.0     0.0     0.0     0.0     0.0     0.0     0.0     0.5     0.0     0.0     0.0     0.0     0.0     0.0     0.0     0.0     0.0
   15 109    33    0.02    0.00    0.05    0.00    36.6   0.000   0.037   0.000   0.105     1.5     0.0     4.8     0.0    1611    0.00    1.61    0.00    2.23     0.0     0.0     0.0     0.0     0.0     0.0     0.0     0.0     0.0     0.0   1434.      0.      6.     11.     11.     11.     11.     11.     18.     18.     1.4     0.0     0.0     0.0     0.0     0.0     0.0     0.0     0.0     0.0     0.0     0.0     0.0     0.0     0.0     0.0     0.0     0.0     0.0     0.0     2.0     0.0     0.0     0.0     0.0     0.0     0.0     0.0     0.0     0.0
   15 110    34    0.02    0.00    0.06    0.00    38.0   0.000   0.038   0.000   0.110     2.0     0.0     6.5     0.0    1410    0.00    1.41    0.00    4.54     0.0     0.0     0.0     0.0     0.0     0.0     0.0     0.0     0.0     0.0   1239.      0.      6.     12.     12.     10.     10.     10.     17.     17.     1.2     0.0     0.0     0.0     0.0     0.0     0.0     0.0     0.0     0.0     0.0     0.0     0.0     0.0     0.0     0.0     0.0     0.0     0.0     0.0     4.3     0.0     0.0     0.0     0.0     0.0     0.0     0.0     0.0     0.0
   15 111    35    0.02    0.00    0.07    0.00    39.1   0.000   0.039   0.000   0.113     1.8     0.0     6.0     0.0    1072    0.00    1.07    0.00    3.40     0.0     0.0     0.0     0.0     0.0     0.0     0.0     0.0     0.0     0.0    913.      0.      6.     11.     11.      9.      9.      9.     16.     15.     0.9     0.0     0.0     0.0     0.0     0.0     0.0     0.0     0.0     0.0     0.0     0.0     0.0     0.0     0.0     0.0     0.0     0.0     0.0     0.0     3.2     0.0     0.0     0.0     0.0     0.0     0.0     0.0     0.0     0.0
   15 112    36    0.02    0.00    0.07    0.00    39.9   0.000   0.040   0.000   0.116     1.6     0.0     5.4     0.0     824    0.00    0.82    0.00    2.61     0.0     0.0     0.0     0.0     0.0     0.0     0.0     0.0     0.0     0.0    678.      0.      6.     10.     10.      8.      8.      8.     14.     14.     0.7     0.0     0.0     0.0     0.0     0.0     0.0     0.0     0.0     0.0     0.0     0.0     0.0     0.0     0.0     0.0     0.0     0.0     0.0     0.0     2.4     0.0     0.0     0.0     0.0     0.0     0.0     0.0     0.0     0.0
   15 113    37    0.02    0.00    0.08    0.00    40.6   0.000   0.041   0.000   0.118     1.5     0.0     5.0     0.0     700    0.00    0.70    0.00    2.29     0.0     0.0     0.0     0.0     0.0     0.0     0.0     0.0     0.0     0.0    559.      0.      5.      9.     10.      8.      8.      8.     14.     14.     0.6     0.0     0.0     0.0     0.0     0.0     0.0     0.0     0.0     0.0     0.0     0.0     0.0     0.0     0.0     0.0     0.0     0.0     0.0     0.0     2.1     0.0     0.0     0.0     0.0     0.0     0.0     0.0     0.0     0.0
   15 114    38    0.02    0.00    0.08    0.00    41.2   0.000   0.041   0.000   0.120     1.4     0.0     4.6     0.0     633    0.00    0.63    0.00    2.19     0.0     0.0     0.0     0.0     0.0     0.0     0.0     0.0     0.0     0.0    495.      0.      5.      9.     10.      8.      8.      8.     14.     13.     0.5     0.0     0.0     0.0     0.0     0.0     0.0     0.0     0.0     0.0     0.0     0.0     0.0     0.0     0.0     0.0     0.0     0.0     0.0     0.0     2.0     0.0     0.0     0.0     0.0     0.0     0.0     0.0     0.0     0.0
   15 115    39    0.02    0.00    0.09    0.00    41.8   0.000   0.042   0.000   0.122     1.3     0.0     4.2     0.0     571    0.00    0.57    0.00    2.05     0.0     0.0     0.0     0.0     0.0     0.0     0.0     0.0     0.0     0.0    434.      0.      5.      8.     10.      8.      8.      8.     14.     13.     0.4     0.0     0.0     0.0     0.0     0.0     0.0     0.0     0.0     0.0     0.0     0.0     0.0     0.0     0.0     0.0     0.0     0.0     0.0     0.0     1.9     0.0     0.0     0.0     0.0     0.0     0.0     0.0     0.0     0.0
   15 116    40    0.03    0.00    0.09    0.00    42.3   0.000   0.042   0.000   0.124     1.1     0.0     3.7     0.0     534    0.00    0.53    0.00    1.77     0.0     0.0     0.0     0.0     0.0     0.0     0.0     0.0     0.0     0.0    395.      0.      4.      8.     10.      9.      8.      8.     14.     14.     0.4     0.0     0.0     0.0     0.0     0.0     0.0     0.0     0.0     0.0     0.0     0.0     0.0     0.0     0.0     0.0     0.0     0.0     0.0     0.0     1.6     0.0     0.0     0.0     0.0     0.0     0.0     0.0     0.0     0.0
   15 117    41    0.03    0.00    0.09    0.00    42.8   0.000   0.043   0.000   0.125     1.0     0.0     3.2     0.0     462    0.00    0.46    0.00    1.40     0.0     0.0     0.0     0.0     0.0     0.0     0.0     0.0     0.0     0.0    316.      0.      4.      8.     10.      9.      9.      9.     15.     15.     0.3     0.0     0.0     0.0     0.0     0.0     0.0     0.0     0.0     0.0     0.0     0.0     0.0     0.0     0.0     0.0     0.0     0.0     0.0     0.0     1.2     0.0     0.0     0.0     0.0     0.0     0.0     0.0     0.0     0.0
   15 118    42    0.03    0.00    0.10    0.00    43.1   0.000   0.043   0.000   0.126     0.8     0.0     2.7     0.0     328    0.00    0.33    0.00    0.78     0.0     0.0     0.0     0.0     0.0     0.0     0.0     0.0     0.0     0.0    174.      0.      5.      9.     11.     10.     10.      9.     16.     15.     0.2     0.0     0.0     0.0     0.0     0.0     0.0     0.0     0.0     0.0     0.0     0.0     0.0     0.0     0.0     0.0     0.0     0.0     0.0     0.0     0.6     0.0     0.0     0.0     0.0     0.0     0.0     0.0     0.0     0.0
   15 119    43    0.03    0.00    0.10    0.00    43.4   0.000   0.043   0.000   0.126     0.4     0.0     1.2     0.0     249    0.00    0.25    0.00    0.27     0.0     0.0     0.0     0.0     0.0     0.0     0.0     0.0     0.0     0.0     87.      0.      5.     10.     12.     11.     10.     10.     17.     16.     0.1     0.0     0.0     0.0     0.0     0.0     0.0     0.0     0.0     0.0     0.0     0.0     0.0     0.0     0.0     0.0     0.0     0.0     0.0     0.0     0.1     0.0     0.0     0.0     0.0     0.0     0.0     0.0     0.0     0.0
   15 120    44    0.03    0.00    0.10    0.00    43.6   0.000   0.044   0.000   0.127     0.6     0.0     1.9     0.0     247    0.00    0.25    0.00    0.39     0.0     0.0     0.0     0.0     0.0     0.0     0.0     0.0     0.0     0.0     83.      0.      5.     10.     12.     11.     10.     10.     17.     16.     0.1     0.0     0.0     0.0     0.0     0.0     0.0     0.0     0.0     0.0     0.0     0.0     0.0     0.0     0.0     0.0     0.0     0.0     0.0     0.0     0.2     0.0     0.0     0.0     0.0     0.0     0.0     0.0     0.0     0.0
   15 121    45    0.03    0.00    0.10    0.00    43.8   0.000   0.044   0.000   0.127     0.6     0.0     1.9     0.0     212    0.00    0.21    0.00    0.36     0.0     0.0     0.0     0.0     0.0     0.0     0.0     0.0     0.0     0.0     46.      0.      5.     10.     12.     11.     11.     10.     17.     16.     0.0     0.0     0.0     0.0     0.0     0.0     0.0     0.0     0.0     0.0     0.0     0.0     0.0     0.0     0.0     0.0     0.0     0.0     0.0     0.0     0.1     0.0     0.0     0.0     0.0     0.0     0.0     0.0     0.0     0.0
   15 122    46    0.03    0.00    0.10    0.00    44.0   0.000   0.044   0.004   0.127     0.2     0.3     0.7     3.9     159    0.14    0.16    3.78    0.24     3.9     0.0     0.0     0.0     0.0     0.0     0.0     0.0     0.0     0.0     14.      1.      3.      6.      8.      8.     10.     10.     16.     15.     0.2     0.0     0.0     0.0     0.0     0.0     0.0     0.0     0.0     0.0     3.8     0.0     0.0     0.0     0.0     0.0     0.0     0.0     0.0     0.0     0.1     0.0     0.0     0.0     0.0     0.0     0.0     0.0     0.0     0.0
   15 123    47    0.03    0.00    0.10    0.00    44.1   0.000   0.044   0.005   0.127     0.3     0.4     0.9     1.0     139    0.02    0.14    1.02    0.15     1.0     0.0     0.0     0.0     0.0     0.0     0.0     0.0     0.0     0.0      6.      2.      2.      5.      6.      7.      7.      8.     15.     14.     0.0     0.0     0.0     0.0     0.0     0.0     0.0     0.0     0.0     0.0     1.0     0.0     0.0     0.0     0.0     0.0     0.0     0.0     0.0     0.0     0.0     0.0     0.0     0.0     0.0     0.0     0.0     0.0     0.0     0.0
   15 124    48    0.03    0.00    0.10    0.01    44.3   0.000   0.044   0.006   0.128     0.2     0.3     0.5     1.0     139    0.01    0.14    0.98    0.13     1.0     0.0     0.0     0.0     0.0     0.0     0.0     0.0     0.0     0.0      4.      2.      3.      5.      6.      7.      7.      8.     16.     15.     0.0     0.0     0.0     0.0     0.0     0.0     0.0     0.0     0.0     0.0     1.0     0.0     0.0     0.0     0.0     0.0     0.0     0.0     0.0     0.0     0.0     0.0     0.0     0.0     0.0     0.0     0.0     0.0     0.0     0.0
   15 125    49    0.03    0.00    0.10    0.01    44.4   0.000   0.044   0.006   0.128     0.3     0.6     1.0     0.1     161    0.00    0.16    0.06    0.17     0.1     0.0     0.0     0.0     0.0     0.0     0.0     0.0     0.0     0.0      1.      4.      4.      7.      7.      9.      9.      9.     18.     17.     0.0     0.0     0.0     0.0     0.0     0.0     0.0     0.0     0.0     0.0     0.1     0.0     0.0     0.0     0.0     0.0     0.0     0.0     0.0     0.0     0.0     0.0     0.0     0.0     0.0     0.0     0.0     0.0     0.0     0.0
   15 126    50    0.03    0.00    0.10    0.02    44.6   0.001   0.045   0.021   0.129     0.3     0.5     0.7    15.8     177    1.09    0.18   14.72    1.25     0.1     1.3     2.8     3.2     3.7     4.7     0.0     0.0     0.0     0.0      1.      6.      4.      7.      8.     10.     11.     11.     17.     17.     0.0     0.0     0.1     0.2     0.3     0.5     0.0     0.0     0.0     0.0     0.1     1.3     2.7     3.0     3.4     4.2     0.0     0.0     0.0     0.0     0.0     0.0     0.1     0.2     0.3     0.5     0.0     0.0     0.0     0.0
   15 127    51    0.03    0.00    0.11    0.07    44.8   0.005   0.045   0.065   0.132     0.2     0.4     0.5    48.1     183    4.07    0.18   43.98    2.70     0.1     2.5     3.0     9.2     9.8     9.7     8.4     5.4     0.0     0.0      2.      8.      4.      6.      7.      9.     11.     11.     19.     18.     0.0     0.0     0.1     0.4     0.6     1.0     1.2     0.8     0.0     0.0     0.1     2.4     2.9     8.8     9.2     8.7     7.3     4.6     0.0     0.0     0.0     0.0     0.0     0.2     0.3     0.6     0.8     0.6     0.0     0.0
   15 128    52    0.03    0.00    0.11    0.09    45.0   0.007   0.045   0.080   0.133     0.3     0.7     0.9    16.7     213    1.21    0.21   15.51    1.38     0.0     0.7     0.8     3.0     3.2     3.3     3.4     2.3     0.0     0.0      0.     13.      5.      9.      9.     11.     14.     14.     22.     21.     0.0     0.0     0.0     0.1     0.2     0.3     0.4     0.3     0.0     0.0     0.0     0.7     0.8     2.9     3.1     3.1     3.0     2.0     0.0     0.0     0.0     0.0     0.0     0.1     0.1     0.3     0.4     0.3     0.0     0.0
   15 129    53    0.03    0.00    0.11    0.09    45.2   0.007   0.045   0.085   0.134     0.4     1.0     1.0     4.9     232    0.35    0.23    4.52    0.71     0.0     0.1     0.2     0.7     0.8     0.9     1.3     0.9     0.0     0.0      0.     15.      5.     10.     10.     11.     16.     15.     24.     23.     0.0     0.0     0.0     0.0     0.0     0.1     0.2     0.1     0.0     0.0     0.0     0.1     0.2     0.7     0.8     0.8     1.2     0.8     0.0     0.0     0.0     0.0     0.0     0.0     0.0     0.1     0.2     0.2     0.0     0.0
   15 130    54    0.03    0.00    0.11    0.10    45.5   0.007   0.045   0.089   0.135     0.3     0.7     0.6     5.3     227    0.54    0.23    4.72    0.88     0.0     0.0     0.1     0.2     0.2     0.5     1.4     1.3     0.8     0.7      0.     13.      4.      8.      9.     10.     15.     15.     25.     23.     0.0     0.0     0.0     0.0     0.0     0.0     0.2     0.2     0.1     0.1     0.0     0.0     0.1     0.2     0.2     0.4     1.3     1.1     0.7     0.6     0.0     0.0     0.0     0.0     0.0     0.0     0.2     0.2     0.1     0.1
   15 131    55    0.03    0.01    0.11    0.10    45.7   0.008   0.046   0.092   0.135     0.3     1.1     0.8     3.1     214    0.39    0.21    2.70    0.68     0.0     0.0     0.0     0.0     0.0     0.0     0.5     0.5     0.5     0.5      0.     10.      3.      7.      8.      8.     14.     15.     24.     23.     0.0     0.0     0.0     0.0     0.0     0.0     0.1     0.1     0.1     0.1     0.0     0.0     0.0     0.0     0.0     0.0     0.4     0.4     0.5     0.5     0.0     0.0     0.0     0.0     0.0     0.0     0.1     0.1     0.1     0.1
   15 132    56    0.03    0.01    0.11    0.10    45.9   0.008   0.046   0.094   0.136     0.3     1.2     0.7     2.1     220    0.27    0.22    1.82    0.56     0.0     0.0     0.0     0.0     0.0     0.0     0.2     0.3     0.3     0.3      0.     10.      3.      7.      7.      9.     14.     16.     25.     24.     0.0     0.0     0.0     0.0     0.0     0.0     0.0     0.1     0.1     0.1     0.0     0.0     0.0     0.0     0.0     0.0     0.2     0.3     0.3     0.3     0.0     0.0     0.0     0.0     0.0     0.0     0.0     0.1     0.1     0.1
   15 133    57    0.03    0.01    0.11    0.10    46.2   0.008   0.046   0.095   0.136     0.3     1.3     0.7     1.2     240    0.16    0.24    1.02    0.47     0.0     0.0     0.0     0.0     0.0     0.0     0.0     0.2     0.0     0.2      1.     11.      3.      7.      8.      9.     17.     18.     28.     26.     0.0     0.0     0.0     0.0     0.0     0.0     0.0     0.0     0.0     0.0     0.0     0.0     0.0     0.0     0.0     0.0     0.0     0.1     0.0     0.1     0.0     0.0     0.0     0.0     0.0     0.0     0.0     0.0     0.0     0.0
   15 134    58    0.03    0.01    0.11    0.10    46.4   0.008   0.046   0.095   0.137     0.2     1.1     0.5     0.7     260    0.10    0.26    0.63    0.43     0.0     0.0     0.0     0.0     0.0     0.0     0.0     0.0     0.0     0.0      0.     10.      4.      8.      8.      9.     16.     19.     35.     33.     0.0     0.0     0.0     0.0     0.0     0.0     0.0     0.0     0.0     0.0     0.0     0.0     0.0     0.0     0.0     0.0     0.0     0.0     0.0     0.0     0.0     0.0     0.0     0.0     0.0     0.0     0.0     0.0     0.0     0.0
   15 135    59    0.03    0.01    0.11    0.10    46.7   0.008   0.047   0.096   0.137     0.3     1.4     0.6     0.6     269    0.08    0.27    0.53    0.42     0.0     0.0     0.0     0.0     0.0     0.0     0.0     0.0     0.0     0.0      0.      9.      4.      9.      9.      9.     14.     23.     36.     33.     0.0     0.0     0.0     0.0     0.0     0.0     0.0     0.0     0.0     0.0     0.0     0.0     0.0     0.0     0.0     0.0     0.0     0.0     0.0     0.0     0.0     0.0     0.0     0.0     0.0     0.0     0.0     0.0     0.0     0.0
   15 136    60    0.03    0.01    0.11    0.11    46.9   0.009   0.047   0.096   0.138     0.3     1.6     0.6     0.6     265    0.08    0.27    0.49    0.41     0.0     0.0     0.0     0.0     0.0     0.0     0.0     0.0     0.0     0.0      0.      8.      5.      9.      9.      9.     13.     22.     35.     33.     0.0     0.0     0.0     0.0     0.0     0.0     0.0     0.0     0.0     0.0     0.0     0.0     0.0     0.0     0.0     0.0     0.0     0.0     0.0     0.0     0.0     0.0     0.0     0.0     0.0     0.0     0.0     0.0     0.0     0.0
   15 137    61    0.03    0.01    0.11    0.11    47.2   0.009   0.047   0.097   0.138     0.3     1.8     0.6     0.5     264    0.06    0.26    0.40    0.39     0.0     0.0     0.0     0.0     0.0     0.0     0.0     0.0     0.0     0.0      0.      8.      5.      9.      9.      9.     12.     22.     35.     32.     0.0     0.0     0.0     0.0     0.0     0.0     0.0     0.0     0.0     0.0     0.0     0.0     0.0     0.0     0.0     0.0     0.0     0.0     0.0     0.0     0.0     0.0     0.0     0.0     0.0     0.0     0.0     0.0     0.0     0.0
   15 138    62    0.03    0.02    0.11    0.11    47.5   0.009   0.047   0.097   0.138     0.3     1.9     0.5     0.4     253    0.05    0.25    0.33    0.37     0.0     0.0     0.0     0.0     0.0     0.0     0.0     0.0     0.0     0.0      0.      7.      5.      9.      9.      9.     11.     20.     33.     31.     0.0     0.0     0.0     0.0     0.0     0.0     0.0     0.0     0.0     0.0     0.0     0.0     0.0     0.0     0.0     0.0     0.0     0.0     0.0     0.0     0.0     0.0     0.0     0.0     0.0     0.0     0.0     0.0     0.0     0.0
   15 139    63    0.03    0.02    0.11    0.11    47.7   0.009   0.048   0.098   0.139     0.3     1.9     0.5     0.4     246    0.05    0.25    0.32    0.36     0.0     0.0     0.0     0.0     0.0     0.0     0.0     0.0     0.0     0.0      0.      7.      4.      8.      9.      8.     10.     19.     32.     30.     0.0     0.0     0.0     0.0     0.0     0.0     0.0     0.0     0.0     0.0     0.0     0.0     0.0     0.0     0.0     0.0     0.0     0.0     0.0     0.0     0.0     0.0     0.0     0.0     0.0     0.0     0.0     0.0     0.0     0.0
   15 140    64    0.03    0.02    0.11    0.11    47.9   0.009   0.048   0.098   0.139     0.1     0.7     0.2     0.3     239    0.05    0.24    0.29    0.32     0.0     0.0     0.0     0.0     0.0     0.0     0.0     0.0     0.0     0.0      1.      7.      3.      8.      9.      8.      9.     17.     32.     30.     0.0     0.0     0.0     0.0     0.0     0.0     0.0     0.0     0.0     0.0     0.0     0.0     0.0     0.0     0.0     0.0     0.0     0.0     0.0     0.0     0.0     0.0     0.0     0.0     0.0     0.0     0.0     0.0     0.0     0.0
   15 141    65    0.03    0.02    0.11    0.11    48.2   0.009   0.048   0.098   0.139     0.1     0.6     0.2     0.3     224    0.04    0.22    0.27    0.28     0.0     0.0     0.0     0.0     0.0     0.0     0.0     0.0     0.0     0.0      2.      7.      2.      5.      5.      7.      9.     16.     30.     28.     0.0     0.0     0.0     0.0     0.0     0.0     0.0     0.0     0.0     0.0     0.0     0.0     0.0     0.0     0.0     0.0     0.0     0.0     0.0     0.0     0.0     0.0     0.0     0.0     0.0     0.0     0.0     0.0     0.0     0.0
   15 142    66    0.03    0.02    0.11    0.11    48.4   0.009   0.048   0.098   0.140     0.2     1.0     0.2     0.3     215    0.04    0.21    0.24    0.26     0.0     0.0     0.0     0.0     0.0     0.0     0.0     0.0     0.0     0.0      1.      9.      2.      5.      4.      5.      8.     14.     29.     27.     0.0     0.0     0.0     0.0     0.0     0.0     0.0     0.0     0.0     0.0     0.0     0.0     0.0     0.0     0.0     0.0     0.0     0.0     0.0     0.0     0.0     0.0     0.0     0.0     0.0     0.0     0.0     0.0     0.0     0.0
   15 143    67    0.04    0.02    0.11    0.11    48.6   0.009   0.049   0.099   0.140     0.3     1.5     0.4     0.2     200    0.03    0.20    0.19    0.25     0.0     0.0     0.0     0.0     0.0     0.0     0.0     0.0     0.0     0.0      0.      8.      3.      5.      4.      4.      7.     12.     27.     26.     0.0     0.0     0.0     0.0     0.0     0.0     0.0     0.0     0.0     0.0     0.0     0.0     0.0     0.0     0.0     0.0     0.0     0.0     0.0     0.0     0.0     0.0     0.0     0.0     0.0     0.0     0.0     0.0     0.0     0.0
   15 144    68    0.04    0.02    0.11    0.11    48.8   0.009   0.049   0.099   0.140     0.2     1.2     0.3     0.2     178    0.02    0.18    0.15    0.21     0.0     0.0     0.0     0.0     0.0     0.0     0.0     0.0     0.0     0.0      0.      7.      2.      4.      3.      4.      5.      9.     21.     24.     0.0     0.0     0.0     0.0     0.0     0.0     0.0     0.0     0.0     0.0     0.0     0.0     0.0     0.0     0.0     0.0     0.0     0.0     0.0     0.0     0.0     0.0     0.0     0.0     0.0     0.0     0.0     0.0     0.0     0.0
   15 145    69    0.04    0.02    0.11    0.11    48.9   0.009   0.049   0.099   0.140     0.2     1.4     0.3     0.2     168    0.02    0.17    0.14    0.19     0.0     0.0     0.0     0.0     0.0     0.0     0.0     0.0     0.0     0.0      0.      6.      2.      3.      3.      3.      4.      8.     20.     23.     0.0     0.0     0.0     0.0     0.0     0.0     0.0     0.0     0.0     0.0     0.0     0.0     0.0     0.0     0.0     0.0     0.0     0.0     0.0     0.0     0.0     0.0     0.0     0.0     0.0     0.0     0.0     0.0     0.0     0.0
   15 146    70    0.04    0.03    0.12    0.11    49.1   0.009   0.049   0.099   0.140     0.3     1.6     0.4     0.1     170    0.02    0.17    0.13    0.19     0.0     0.0     0.0     0.0     0.0     0.0     0.0     0.0     0.0     0.0      0.      5.      2.      3.      3.      3.      4.      8.     22.     20.     0.0     0.0     0.0     0.0     0.0     0.0     0.0     0.0     0.0     0.0     0.0     0.0     0.0     0.0     0.0     0.0     0.0     0.0     0.0     0.0     0.0     0.0     0.0     0.0     0.0     0.0     0.0     0.0     0.0     0.0
   15 147    71    0.04    0.03    0.12    0.11    49.3   0.009   0.049   0.099   0.141     0.4     2.1     0.5     0.1     173    0.01    0.17    0.08    0.20     0.0     0.0     0.0     0.0     0.0     0.0     0.0     0.0     0.0     0.0      0.      4.      2.      3.      3.      3.      5.      8.     23.     21.     0.0     0.0     0.0     0.0     0.0     0.0     0.0     0.0     0.0     0.0     0.0     0.0     0.0     0.0     0.0     0.0     0.0     0.0     0.0     0.0     0.0     0.0     0.0     0.0     0.0     0.0     0.0     0.0     0.0     0.0
   15 148    72    0.04    0.03    0.12    0.11    49.4   0.009   0.049   0.100   0.141     0.4     2.3     0.5     0.8     171    0.08    0.17    0.71    0.28     0.0     0.0     0.0     0.0     0.0     0.0     0.0     0.1     0.6     0.0      0.      3.      1.      3.      3.      3.      5.      8.     23.     21.     0.0     0.0     0.0     0.0     0.0     0.0     0.0     0.0     0.1     0.0     0.0     0.0     0.0     0.0     0.0     0.0     0.0     0.1     0.6     0.0     0.0     0.0     0.0     0.0     0.0     0.0     0.0     0.0     0.1     0.0
   15 149    73    0.04    0.03    0.12    0.11    49.6   0.009   0.050   0.100   0.141     0.4     2.4     0.5     0.6     174    0.06    0.17    0.54    0.26     0.0     0.0     0.0     0.0     0.0     0.0     0.0     0.1     0.5     0.0      0.      3.      1.      3.      3.      3.      5.      8.     23.     22.     0.0     0.0     0.0     0.0     0.0     0.0     0.0     0.0     0.1     0.0     0.0     0.0     0.0     0.0     0.0     0.0     0.0     0.1     0.5     0.0     0.0     0.0     0.0     0.0     0.0     0.0     0.0     0.0     0.1     0.0
   15 150    74    0.04    0.04    0.12    0.11    49.8   0.009   0.050   0.102   0.142     0.4     2.3     0.5     1.7     183    0.21    0.18    1.45    0.42     0.0     0.0     0.0     0.0     0.0     0.0     0.0     0.0     0.5     1.2      0.      3.      1.      3.      3.      4.      6.      8.     24.     23.     0.0     0.0     0.0     0.0     0.0     0.0     0.0     0.0     0.1     0.2     0.0     0.0     0.0     0.0     0.0     0.0     0.0     0.0     0.4     1.0     0.0     0.0     0.0     0.0     0.0     0.0     0.0     0.0     0.1     0.2
   15 151    75    0.04    0.04    0.12    0.11    50.0   0.009   0.050   0.103   0.142     0.4     2.3     0.5     1.5     187    0.20    0.19    1.33    0.41     0.0     0.0     0.0     0.0     0.0     0.0     0.0     0.0     0.4     1.2      0.      4.      1.      3.      4.      4.      6.     10.     24.     24.     0.0     0.0     0.0     0.0     0.0     0.0     0.0     0.0     0.1     0.2     0.0     0.0     0.0     0.0     0.0     0.0     0.0     0.0     0.3     1.0     0.0     0.0     0.0     0.0     0.0     0.0     0.0     0.0     0.1     0.2
   15 152    76    0.04    0.04    0.12    0.11    50.2   0.010   0.050   0.104   0.142     0.4     2.3     0.5     1.4     197    0.18    0.20    1.24    0.41     0.0     0.0     0.0     0.0     0.0     0.0     0.0     0.0     0.3     1.1      0.      5.      2.      4.      4.      5.      6.     10.     25.     25.     0.0     0.0     0.0     0.0     0.0     0.0     0.0     0.0     0.1     0.2     0.0     0.0     0.0     0.0     0.0     0.0     0.0     0.0     0.3     1.0     0.0     0.0     0.0     0.0     0.0     0.0     0.0     0.0     0.1     0.2
   15 153    77    0.04    0.04    0.12    0.12    54.2   0.010   0.054   0.105   0.159     1.2     2.3     3.6     1.3    4039    0.17    4.04    1.16   16.46     0.0     0.0     0.0     0.0     0.0     0.0     0.0     0.0     0.2     1.2   3804.     10.      3.      6.      6.      7.      8.     12.     29.     29.     3.8     0.0     0.0     0.0     0.0     0.0     0.0     0.0     0.0     0.2     0.0     0.0     0.0     0.0     0.0     0.0     0.0     0.0     0.2     1.0    16.0     0.0     0.0     0.0     0.0     0.0     0.0     0.0     0.1     0.2
   15 154    78    0.04    0.04    0.13    0.12    59.1   0.010   0.059   0.106   0.179     1.9     2.3     6.6     1.2    4873    0.16    4.87    1.01   19.87     0.0     0.0     0.0     0.0     0.0     0.0     0.0     0.0     0.0     1.1   4593.     16.      5.      9.     10.      9.     11.     15.     33.     33.     4.6     0.0     0.0     0.0     0.0     0.0     0.0     0.0     0.0     0.2     0.0     0.0     0.0     0.0     0.0     0.0     0.0     0.0     0.0     1.0    19.4     0.1     0.0     0.0     0.0     0.0     0.0     0.0     0.0     0.2
   15 155    79    0.04    0.05    0.14    0.12    63.2   0.010   0.063   0.107   0.195     2.3     2.2     8.5     1.1    4117    0.15    4.12    0.93   16.63     0.0     0.0     0.0     0.0     0.0     0.0     0.0     0.0     0.0     1.1   3789.     24.      7.     13.     13.     12.     14.     17.     43.     36.     3.8     0.0     0.0     0.0     0.0     0.0     0.0     0.0     0.0     0.2     0.0     0.0     0.0     0.0     0.0     0.0     0.0     0.0     0.0     0.9    16.1     0.1     0.0     0.0     0.0     0.0     0.0     0.0     0.0     0.2
   15 156    80    0.05    0.05    0.15    0.12    66.3   0.010   0.066   0.108   0.208     2.5     2.2     9.3     1.1    3045    0.15    3.05    0.96   12.35     0.0     0.0     0.0     0.0     0.0     0.0     0.0     0.0     0.0     1.1   2685.     29.      8.     14.     14.     14.     15.     19.     45.     40.     2.7     0.0     0.0     0.0     0.0     0.0     0.0     0.0     0.0     0.2     0.0     0.0     0.0     0.0     0.0     0.0     0.0     0.0     0.0     1.0    11.7     0.1     0.0     0.0     0.0     0.0     0.0     0.0     0.0     0.2
   15 157    81    0.05    0.05    0.16    0.12    68.6   0.010   0.069   0.109   0.217     2.5     2.2     9.5     1.2    2346    0.16    2.35    1.00    9.64     0.0     0.0     0.0     0.0     0.0     0.0     0.0     0.0     0.0     1.2   1945.     38.      9.     16.     16.     15.     17.     20.     46.     44.     1.9     0.0     0.0     0.0     0.0     0.0     0.0     0.0     0.0     0.2     0.0     0.0     0.0     0.0     0.0     0.0     0.0     0.0     0.0     1.0     8.9     0.1     0.0     0.0     0.0     0.0     0.0     0.0     0.1     0.2
   15 158    82    0.05    0.05    0.16    0.12    70.0   0.011   0.070   0.110   0.222     2.2     2.1     8.3     1.2    1400    0.16    1.40    1.02    4.81     0.0     0.0     0.0     0.0     0.0     0.0     0.0     0.0     0.0     1.2    936.     62.     12.     21.     21.     19.     20.     23.     49.     47.     0.9     0.1     0.0     0.0     0.0     0.0     0.0     0.0     0.0     0.2     0.0     0.0     0.0     0.0     0.0     0.0     0.0     0.0     0.0     1.0     3.9     0.2     0.0     0.0     0.0     0.0     0.0     0.0     0.1     0.2
   15 159    83    0.05    0.06    0.17    0.12    70.8   0.011   0.071   0.111   0.225     2.0     2.1     7.2     1.2     823    0.16    0.82    1.03    2.37     0.0     0.0     0.0     0.0     0.0     0.0     0.0     0.0     0.0     1.2    332.     75.     13.     22.     22.     20.     21.     23.     47.     49.     0.3     0.1     0.0     0.0     0.0     0.0     0.0     0.0     0.0     0.2     0.0     0.0     0.0     0.0     0.0     0.0     0.0     0.0     0.0     1.0     1.4     0.3     0.0     0.1     0.0     0.0     0.0     0.0     0.1     0.2
   15 160    84    0.05    0.06    0.17    0.12    71.3   0.011   0.071   0.112   0.225     0.6     0.7     2.3     1.1     510    0.15    0.51    0.97    0.75     0.0     0.0     0.0     0.0     0.0     0.0     0.0     0.0     0.0     1.1     73.     41.      9.     21.     21.     19.     20.     22.     43.     48.     0.1     0.0     0.0     0.0     0.0     0.0     0.0     0.0     0.0     0.2     0.0     0.0     0.0     0.0     0.0     0.0     0.0     0.0     0.0     1.0     0.0     0.1     0.0     0.0     0.0     0.0     0.0     0.0     0.0     0.2
   15 161    85    0.05    0.06    0.18    0.12    71.8   0.011   0.072   0.113   0.226     1.0     1.2     3.3     1.0     407    0.14    0.41    0.90    0.66     0.0     0.0     0.0     0.0     0.0     0.0     0.0     0.0     0.0     1.0      1.     43.      5.     19.     19.     17.     18.     20.     37.     44.     0.0     0.0     0.0     0.0     0.0     0.0     0.0     0.0     0.0     0.2     0.0     0.0     0.0     0.0     0.0     0.0     0.0     0.0     0.0     0.9     0.0     0.1     0.0     0.0     0.0     0.0     0.0     0.0     0.0     0.2
   15 162    86    0.06    0.06    0.18    0.13    72.1   0.011   0.072   0.114   0.227     1.2     1.7     4.0     1.0     365    0.13    0.37    0.83    0.61     0.0     0.0     0.0     0.0     0.0     0.0     0.0     0.0     0.0     1.0      0.     36.      3.     15.     17.     15.     16.     18.     33.     41.     0.0     0.0     0.0     0.0     0.0     0.0     0.0     0.0     0.0     0.2     0.0     0.0     0.0     0.0     0.0     0.0     0.0     0.0     0.0     0.8     0.0     0.1     0.0     0.0     0.0     0.0     0.0     0.0     0.0     0.2
   15 163    87    0.06    0.06    0.19    0.13    72.5   0.011   0.072   0.115   0.227     1.3     2.0     4.2     0.9     339    0.12    0.34    0.75    0.57     0.0     0.0     0.0     0.0     0.0     0.0     0.0     0.0     0.0     0.9      0.     28.      3.     13.     15.     14.     15.     16.     30.     39.     0.0     0.0     0.0     0.0     0.0     0.0     0.0     0.0     0.0     0.2     0.0     0.0     0.0     0.0     0.0     0.0     0.0     0.0     0.0     0.7     0.0     0.1     0.0     0.0     0.0     0.0     0.0     0.0     0.0     0.2
   15 164    88    0.06    0.06    0.19    0.13    72.8   0.011   0.073   0.115   0.228     1.2     2.0     3.7     0.7     336    0.10    0.34    0.62    0.55     0.0     0.0     0.0     0.0     0.0     0.0     0.0     0.0     0.0     0.7      0.     30.      3.     12.     15.     14.     15.     16.     29.     38.     0.0     0.0     0.0     0.0     0.0     0.0     0.0     0.0     0.0     0.1     0.0     0.0     0.0     0.0     0.0     0.0     0.0     0.0     0.0     0.6     0.0     0.1     0.0     0.0     0.0     0.0     0.0     0.0     0.0     0.1
   15 165    89    0.06    0.06    0.19    0.13    73.1   0.011   0.073   0.116   0.228     0.5     0.9     1.5     0.5     349    0.06    0.35    0.41    0.52     0.0     0.0     0.0     0.0     0.0     0.0     0.0     0.0     0.0     0.5      2.     29.      3.     13.     16.     14.     15.     17.     29.     40.     0.0     0.0     0.0     0.0     0.0     0.0     0.0     0.0     0.0     0.1     0.0     0.0     0.0     0.0     0.0     0.0     0.0     0.0     0.0     0.4     0.0     0.1     0.0     0.0     0.0     0.0     0.0     0.0     0.0     0.1
   15 166    90    0.06    0.07    0.19    0.13    73.5   0.011   0.074   0.116   0.229     0.8     1.5     2.3     0.2     380    0.03    0.38    0.21    0.55     0.0     0.0     0.0     0.0     0.0     0.0     0.0     0.0     0.0     0.2      0.     33.      3.     14.     18.     16.     17.     18.     32.     43.     0.0     0.0     0.0     0.0     0.0     0.0     0.0     0.0     0.0     0.1     0.0     0.0     0.0     0.0     0.0     0.0     0.0     0.0     0.0     0.2     0.0     0.1     0.0     0.0     0.0     0.0     0.0     0.0     0.0     0.1
   15 167    91    0.06    0.07    0.19    0.13    73.9   0.011   0.074   0.116   0.229     0.4     0.7     1.0     0.0     402    0.00    0.40    0.00    0.42     0.0     0.0     0.0     0.0     0.0     0.0     0.0     0.0     0.0     0.0      5.     53.      4.      9.     18.     17.     18.     19.     32.     42.     0.0     0.1     0.0     0.0     0.0     0.0     0.0     0.0     0.0     0.0     0.0     0.0     0.0     0.0     0.0     0.0     0.0     0.0     0.0     0.0     0.0     0.0     0.0     0.0     0.0     0.0     0.0     0.0     0.0     0.0
   15 168    92    0.06    0.07    0.20    0.13    74.3   0.011   0.074   0.116   0.230     0.6     1.2     1.7     0.0     403    0.00    0.40    0.00    0.45     0.0     0.0     0.0     0.0     0.0     0.0     0.0     0.0     0.0     0.0      0.     68.      5.      8.     11.     15.     17.     18.     31.     46.     0.0     0.1     0.0     0.0     0.0     0.0     0.0     0.0     0.0     0.0     0.0     0.0     0.0     0.0     0.0     0.0     0.0     0.0     0.0     0.0     0.0     0.1     0.0     0.0     0.0     0.0     0.0     0.0     0.0     0.0
   15 169    93    0.06    0.07    0.20    0.13    74.7   0.011   0.075   0.116   0.230     0.8     1.6     2.0     0.0     358    0.00    0.36    0.00    0.46     0.0     0.0     0.0     0.0     0.0     0.0     0.0     0.0     0.0     0.0      0.     51.      4.      7.      9.     12.     16.     17.     29.     40.     0.0     0.1     0.0     0.0     0.0     0.0     0.0     0.0     0.0     0.0     0.0     0.0     0.0     0.0     0.0     0.0     0.0     0.0     0.0     0.0     0.0     0.1     0.0     0.0     0.0     0.0     0.0     0.0     0.0     0.0
   15 170    94    0.06    0.07    0.20    0.13    75.0   0.011   0.075   0.116   0.230     0.3     0.6     0.7     0.0     331    0.00    0.33    0.00    0.35     0.0     0.0     0.0     0.0     0.0     0.0     0.0     0.0     0.0     0.0      4.     49.      4.      5.      6.     11.     14.     15.     26.     35.     0.0     0.0     0.0     0.0     0.0     0.0     0.0     0.0     0.0     0.0     0.0     0.0     0.0     0.0     0.0     0.0     0.0     0.0     0.0     0.0     0.0     0.0     0.0     0.0     0.0     0.0     0.0     0.0     0.0     0.0
   15 171    95    0.06    0.07    0.20    0.13    75.3   0.011   0.075   0.116   0.231     0.5     1.1     1.3     0.1     289    0.00    0.29    0.06    0.34     0.0     0.1     0.0     0.0     0.0     0.0     0.0     0.0     0.0     0.0      0.     40.      3.      4.      6.      8.     11.     14.     23.     30.     0.0     0.0     0.0     0.0     0.0     0.0     0.0     0.0     0.0     0.0     0.0     0.1     0.0     0.0     0.0     0.0     0.0     0.0     0.0     0.0     0.0     0.1     0.0     0.0     0.0     0.0     0.0     0.0     0.0     0.0
   15 172    96    0.06    0.07    0.20    0.13    75.6   0.011   0.076   0.116   0.231     0.6     1.3     1.3     0.0     262    0.00    0.26    0.03    0.31     0.0     0.0     0.0     0.0     0.0     0.0     0.0     0.0     0.0     0.0      0.     30.      3.      4.      4.      5.     10.     13.     22.     27.     0.0     0.0     0.0     0.0     0.0     0.0     0.0     0.0     0.0     0.0     0.0     0.0     0.0     0.0     0.0     0.0     0.0     0.0     0.0     0.0     0.0     0.1     0.0     0.0     0.0     0.0     0.0     0.0     0.0     0.0
   15 173    97    0.06    0.07    0.20    0.13    75.8   0.011   0.076   0.116   0.231     0.6     1.3     1.3     0.0     244    0.00    0.24    0.01    0.30     0.0     0.0     0.0     0.0     0.0     0.0     0.0     0.0     0.0     0.0      0.     24.      2.      4.      4.      5.      9.     12.     20.     25.     0.0     0.0     0.0     0.0     0.0     0.0     0.0     0.0     0.0     0.0     0.0     0.0     0.0     0.0     0.0     0.0     0.0     0.0     0.0     0.0     0.0     0.1     0.0     0.0     0.0     0.0     0.0     0.0     0.0     0.0
   15 174    98    0.06    0.07    0.20    0.13    76.0   0.011   0.076   0.116   0.232     0.7     1.5     1.4     0.0     237    0.00    0.24    0.00    0.30     0.0     0.0     0.0     0.0     0.0     0.0     0.0     0.0     0.0     0.0      0.     19.      2.      3.      4.      5.      8.     12.     20.     24.     0.0     0.0     0.0     0.0     0.0     0.0     0.0     0.0     0.0     0.0     0.0     0.0     0.0     0.0     0.0     0.0     0.0     0.0     0.0     0.0     0.0     0.1     0.0     0.0     0.0     0.0     0.0     0.0     0.0     0.0
   15 175    99    0.06    0.08    0.20    0.13    76.3   0.011   0.076   0.116   0.232     0.5     1.1     0.9     0.0     232    0.00    0.23    0.00    0.29     0.0     0.0     0.0     0.0     0.0     0.0     0.0     0.0     0.0     0.0      0.     19.      2.      3.      4.      5.      8.     12.     20.     22.     0.0     0.0     0.0     0.0     0.0     0.0     0.0     0.0     0.0     0.0     0.0     0.0     0.0     0.0     0.0     0.0     0.0     0.0     0.0     0.0     0.0     0.1     0.0     0.0     0.0     0.0     0.0     0.0     0.0     0.0
   15 176   100    0.07    0.08    0.21    0.13    76.5   0.011   0.077   0.116   0.232     0.6     1.3     1.1     0.0     232    0.00    0.23    0.00    0.30     0.0     0.0     0.0     0.0     0.0     0.0     0.0     0.0     0.0     0.0      0.     19.      2.      4.      4.      5.      7.     12.     20.     22.     0.0     0.0     0.0     0.0     0.0     0.0     0.0     0.0     0.0     0.0     0.0     0.0     0.0     0.0     0.0     0.0     0.0     0.0     0.0     0.0     0.0     0.1     0.0     0.0     0.0     0.0     0.0     0.0     0.0     0.0
   15 177   101    0.07    0.08    0.21    0.13    76.7   0.011   0.077   0.116   0.233     0.6     1.3     1.1     0.0     240    0.00    0.24    0.00    0.32     0.0     0.0     0.0     0.0     0.0     0.0     0.0     0.0     0.0     0.0      0.     23.      2.      4.      5.      5.      7.     12.     20.     21.     0.0     0.0     0.0     0.0     0.0     0.0     0.0     0.0     0.0     0.0     0.0     0.0     0.0     0.0     0.0     0.0     0.0     0.0     0.0     0.0     0.0     0.1     0.0     0.0     0.0     0.0     0.0     0.0     0.0     0.0
   15 178   102    0.07    0.08    0.21    0.13    77.0   0.011   0.077   0.116   0.233     0.6     1.3     1.0     0.0     257    0.00    0.26    0.00    0.36     0.0     0.0     0.0     0.0     0.0     0.0     0.0     0.0     0.0     0.0      1.     31.      2.      5.      5.      6.      8.     13.     21.     22.     0.0     0.0     0.0     0.0     0.0     0.0     0.0     0.0     0.0     0.0     0.0     0.0     0.0     0.0     0.0     0.0     0.0     0.0     0.0     0.0     0.0     0.1     0.0     0.0     0.0     0.0     0.0     0.0     0.0     0.0
   15 179   103    0.07    0.08    0.21    0.13    77.3   0.011   0.077   0.116   0.233     0.5     1.2     0.9     0.0     278    0.00    0.28    0.00    0.41     0.0     0.0     0.0     0.0     0.0     0.0     0.0     0.0     0.0     0.0      1.     42.      3.      6.      6.      6.      8.     13.     22.     22.     0.0     0.0     0.0     0.0     0.0     0.0     0.0     0.0     0.0     0.0     0.0     0.0     0.0     0.0     0.0     0.0     0.0     0.0     0.0     0.0     0.0     0.1     0.0     0.0     0.0     0.0     0.0     0.0     0.0     0.0
   15 180   104    0.07    0.08    0.21    0.13    77.6   0.011   0.078   0.116   0.234     0.5     1.1     0.8     0.0     311    0.00    0.31    0.00    0.49     0.0     0.0     0.0     0.0     0.0     0.0     0.0     0.0     0.0     0.0      7.     52.      4.      7.      8.      8.      9.     14.     24.     23.     0.0     0.1     0.0     0.0     0.0     0.0     0.0     0.0     0.0     0.0     0.0     0.0     0.0     0.0     0.0     0.0     0.0     0.0     0.0     0.0     0.0     0.2     0.0     0.0     0.0     0.0     0.0     0.0     0.0     0.0
   15 181   105    0.07    0.08    0.21    0.13    78.0   0.011   0.078   0.116   0.234     0.5     1.1     0.8     0.0     358    0.00    0.36    0.00    0.62     0.0     0.0     0.0     0.0     0.0     0.0     0.0     0.0     0.0     0.0     18.     66.      5.      9.      9.      9.     11.     15.     26.     25.     0.0     0.1     0.0     0.0     0.0     0.0     0.0     0.0     0.0     0.0     0.0     0.0     0.0     0.0     0.0     0.0     0.0     0.0     0.0     0.0     0.1     0.2     0.0     0.0     0.0     0.0     0.0     0.0     0.0     0.0
   15 182   106    0.07    0.08    0.21    0.13    78.4   0.011   0.078   0.116   0.235     0.5     1.1     0.8     0.0     429    0.00    0.43    0.00    0.82     0.0     0.0     0.0     0.0     0.0     0.0     0.0     0.0     0.0     0.0     36.     87.      6.     12.     12.     11.     13.     17.     29.     28.     0.0     0.1     0.0     0.0     0.0     0.0     0.0     0.0     0.0     0.0     0.0     0.0     0.0     0.0     0.0     0.0     0.0     0.0     0.0     0.0     0.2     0.3     0.0     0.0     0.0     0.0     0.0     0.0     0.0     0.0
   15 183   107    0.07    0.09    0.21    0.13    78.9   0.011   0.079   0.116   0.236     0.5     1.0     0.9     0.0     498    0.00    0.50    0.00    1.04     0.0     0.0     0.0     0.0     0.0     0.0     0.0     0.0     0.0     0.0     50.    112.      8.     15.     15.     13.     15.     19.     32.     30.     0.0     0.1     0.0     0.0     0.0     0.0     0.0     0.0     0.0     0.0     0.0     0.0     0.0     0.0     0.0     0.0     0.0     0.0     0.0     0.0     0.3     0.4     0.0     0.0     0.0     0.0     0.0     0.0     0.0     0.0
   15 184   108    0.07    0.09    0.22    0.13    85.3   0.011   0.085   0.116   0.269     1.7     1.0     7.3     0.0    6384    0.00    6.38    0.00   32.22     0.0     0.0     0.0     0.0     0.0     0.0     0.0     0.0     0.0     0.0   5884.    135.     10.     18.     18.     16.     17.     20.     35.     33.     5.9     0.1     0.0     0.0     0.0     0.0     0.0     0.0     0.0     0.0     0.0     0.0     0.0     0.0     0.0     0.0     0.0     0.0     0.0     0.0    31.3     0.5     0.0     0.0     0.0     0.0     0.0     0.0     0.0     0.0
   15 185   109    0.07    0.09    0.23    0.13    92.0   0.011   0.092   0.116   0.303     2.8     1.0    13.2     0.0    6691    0.00    6.69    0.00   34.82     0.0     0.0     0.0     0.0     0.0     0.0     0.0     0.0     0.0     0.0   6132.    159.     12.     21.     21.     19.     20.     22.     39.     36.     6.1     0.2     0.0     0.0     0.0     0.0     0.0     0.0     0.0     0.0     0.0     0.0     0.0     0.0     0.0     0.0     0.0     0.0     0.0     0.0    33.7     0.6     0.0     0.0     0.0     0.0     0.0     0.0     0.0     0.0
   15 186   110    0.08    0.09    0.25    0.13    98.1   0.011   0.098   0.116   0.336     3.5     0.9    17.3     0.0    6112    0.00    6.11    0.00   32.17     0.0     0.0     0.0     0.0     0.0     0.0     0.0     0.0     0.0     0.0   5495.    182.     14.     24.     24.     21.     22.     24.     42.     40.     5.5     0.2     0.0     0.0     0.0     0.0     0.0     0.0     0.0     0.0     0.0     0.0     0.0     0.0     0.0     0.0     0.0     0.0     0.0     0.0    30.9     0.7     0.0     0.1     0.0     0.0     0.0     0.0     0.0     0.0
   15 187   111    0.08    0.09    0.27    0.13   103.3   0.011   0.103   0.116   0.363     3.9     0.9    19.6     0.0    5252    0.00    5.25    0.00   27.71     0.0     0.0     0.0     0.0     0.0     0.0     0.0     0.0     0.0     0.0   4587.    198.     14.     27.     27.     24.     25.     25.     45.     43.     4.6     0.2     0.0     0.0     0.0     0.0     0.0     0.0     0.0     0.0     0.0     0.0     0.0     0.0     0.0     0.0     0.0     0.0     0.0     0.0    26.4     0.7     0.1     0.1     0.1     0.0     0.0     0.0     0.1     0.0
   15 188   112    0.08    0.09    0.29    0.13   108.3   0.011   0.108   0.116   0.389     4.0     0.9    20.4     0.0    4996    0.00    5.00    0.00   25.40     0.0     0.0     0.0     0.0     0.0     0.0     0.0     0.0     0.0     0.0   4317.    200.     14.     27.     28.     25.     26.     25.     47.     46.     4.3     0.2     0.0     0.0     0.0     0.0     0.0     0.0     0.0     0.0     0.0     0.0     0.0     0.0     0.0     0.0     0.0     0.0     0.0     0.0    24.0     0.8     0.1     0.1     0.1     0.0     0.0     0.0     0.1     0.0
   15 189   113    0.09    0.09    0.31    0.13   113.7   0.011   0.114   0.116   0.410     3.8     0.7    18.5     0.0    5377    0.00    5.38    0.00   21.62     0.0     0.0     0.0     0.0     0.0     0.0     0.0     0.0     0.0     0.0   4665.    206.     14.     29.     29.     26.     28.     26.     50.     52.     4.7     0.2     0.0     0.0     0.0     0.0     0.0     0.0     0.1     0.1     0.0     0.0     0.0     0.0     0.0     0.0     0.0     0.0     0.0     0.0    20.1     0.8     0.1     0.1     0.1     0.0     0.0     0.0     0.1     0.1
   15 190   114    0.09    0.09    0.32    0.13   117.1   0.011   0.117   0.116   0.418     3.0     0.6    13.3     0.0    3437    0.00    3.44    0.00    7.37     0.0     0.0     0.0     0.0     0.0     0.0     0.0     0.0     0.0     0.0   2776.    180.     11.     27.     27.     24.     26.     24.     48.     52.     2.8     0.2     0.0     0.0     0.0     0.0     0.0     0.0     0.0     0.1     0.0     0.0     0.0     0.0     0.0     0.0     0.0     0.0     0.0     0.0     6.1     0.7     0.0     0.1     0.1     0.0     0.0     0.0     0.1     0.1
   15 191   115    0.10    0.09    0.34    0.13   119.6   0.011   0.120   0.116   0.426     3.5     0.7    15.1     0.0    2460    0.00    2.46    0.00    8.63     0.0     0.0     0.0     0.0     0.0     0.0     0.0     0.0     0.0     0.0   1863.    168.      9.     22.     23.     21.     23.     21.     42.     48.     1.9     0.2     0.0     0.0     0.0     0.0     0.0     0.0     0.0     0.0     0.0     0.0     0.0     0.0     0.0     0.0     0.0     0.0     0.0     0.0     7.5     0.6     0.0     0.1     0.0     0.0     0.0     0.0     0.0     0.0
   15 192   116    0.10    0.09    0.35    0.13   121.3   0.011   0.121   0.116   0.432     3.2     0.7    13.6     0.0    1758    0.00    1.76    0.00    6.20     0.0     0.0     0.0     0.0     0.0     0.0     0.0     0.0     0.0     0.0   1220.    155.      7.     19.     19.     18.     20.     18.     37.     44.     1.2     0.2     0.0     0.0     0.0     0.0     0.0     0.0     0.0     0.0     0.0     0.0     0.0     0.0     0.0     0.0     0.0     0.0     0.0     0.0     5.1     0.6     0.0     0.1     0.0     0.0     0.0     0.0     0.0     0.0
   15 193   117    0.10    0.09    0.36    0.13   122.8   0.011   0.123   0.116   0.437     2.9     0.7    12.1     0.0    1435    0.00    1.44    0.00    5.02     0.0     0.0     0.0     0.0     0.0     0.0     0.0     0.0     0.0     0.0    924.    150.      7.     18.     18.     16.     18.     16.     35.     42.     0.9     0.1     0.0     0.0     0.0     0.0     0.0     0.0     0.0     0.0     0.0     0.0     0.0     0.0     0.0     0.0     0.0     0.0     0.0     0.0     4.0     0.6     0.0     0.0     0.0     0.0     0.0     0.0     0.0     0.0
   15 194   118    0.10    0.09    0.37    0.13   124.0   0.011   0.124   0.116   0.442     2.7     0.7    11.1     0.0    1186    0.00    1.19    0.00    4.39     0.0     0.0     0.0     0.0     0.0     0.0     0.0     0.0     0.0     0.0    707.    139.      6.     16.     16.     15.     17.     15.     33.     40.     0.7     0.1     0.0     0.0     0.0     0.0     0.0     0.0     0.0     0.0     0.0     0.0     0.0     0.0     0.0     0.0     0.0     0.0     0.0     0.0     3.4     0.5     0.0     0.0     0.0     0.0     0.0     0.0     0.0     0.0
   15 195   119    0.11    0.10    0.38    0.13   125.0   0.011   0.125   0.116   0.446     2.4     0.7     9.6     0.0    1065    0.00    1.06    0.00    3.81     0.0     0.0     0.0     0.0     0.0     0.0     0.0     0.0     0.0     0.0    594.    135.      6.     16.     16.     15.     16.     14.     32.     39.     0.6     0.1     0.0     0.0     0.0     0.0     0.0     0.0     0.0     0.0     0.0     0.0     0.0     0.0     0.0     0.0     0.0     0.0     0.0     0.0     2.8     0.5     0.0     0.0     0.0     0.0     0.0     0.0     0.0     0.0
   15 196   120    0.11    0.10    0.39    0.13   126.0   0.011   0.126   0.116   0.449     2.2     0.7     8.6     0.0     998    0.00    1.00    0.00    3.56     0.0     0.0     0.0     0.0     0.0     0.0     0.0     0.0     0.0     0.0    510.    137.      6.     17.     17.     15.     17.     15.     33.     40.     0.5     0.1     0.0     0.0     0.0     0.0     0.0     0.0     0.0     0.0     0.0     0.0     0.0     0.0     0.0     0.0     0.0     0.0     0.0     0.0     2.5     0.6     0.0     0.0     0.0     0.0     0.0     0.0     0.0     0.0
   15 197   121    0.11    0.10    0.40    0.13   126.9   0.011   0.127   0.116   0.452     2.0     0.7     7.7     0.0     911    0.00    0.91    0.00    3.20     0.0     0.0     0.0     0.0     0.0     0.0     0.0     0.0     0.0     0.0    406.    139.      6.     17.     17.     16.     17.     15.     34.     41.     0.4     0.1     0.0     0.0     0.0     0.0     0.0     0.0     0.0     0.0     0.0     0.0     0.0     0.0     0.0     0.0     0.0     0.0     0.0     0.0     2.1     0.6     0.0     0.0     0.0     0.0     0.0     0.0     0.0     0.0
   15 198   122    0.11    0.10    0.41    0.13   127.8   0.011   0.128   0.116   0.455     1.8     0.7     6.8     0.0     823    0.00    0.82    0.00    2.80     0.0     0.0     0.0     0.0     0.0     0.0     0.0     0.0     0.0     0.0    319.    130.      7.     17.     18.     16.     17.     15.     35.     42.     0.3     0.1     0.0     0.0     0.0     0.0     0.0     0.0     0.0     0.0     0.0     0.0     0.0     0.0     0.0     0.0     0.0     0.0     0.0     0.0     1.8     0.5     0.0     0.1     0.0     0.0     0.0     0.0     0.0     0.0
   15 199   123    0.11    0.10    0.41    0.13   128.5   0.011   0.129   0.116   0.458     1.6     0.7     6.0     0.0     765    0.00    0.76    0.00    2.52     0.0     0.0     0.0     0.0     0.0     0.0     0.0     0.0     0.0     0.0    266.    118.      7.     17.     18.     16.     17.     15.     35.     42.     0.3     0.1     0.0     0.0     0.0     0.0     0.0     0.0     0.0     0.0     0.0     0.0     0.0     0.0     0.0     0.0     0.0     0.0     0.0     0.0     1.5     0.5     0.0     0.1     0.0     0.0     0.0     0.0     0.0     0.0
   15 200   124    0.12    0.10    0.42    0.13   129.3   0.011   0.129   0.116   0.460     1.4     0.7     5.2     0.0     730    0.00    0.73    0.00    2.33     0.0     0.0     0.0     0.0     0.0     0.0     0.0     0.0     0.0     0.0    243.    104.      7.     17.     17.     15.     16.     15.     34.     42.     0.2     0.1     0.0     0.0     0.0     0.0     0.0     0.0     0.0     0.0     0.0     0.0     0.0     0.0     0.0     0.0     0.0     0.0     0.0     0.0     1.4     0.5     0.0     0.1     0.0     0.0     0.0     0.0     0.0     0.0
   15 201   125    0.12    0.10    0.42    0.13   129.9   0.011   0.130   0.116   0.462     1.3     0.7     4.5     0.0     685    0.00    0.68    0.00    2.11     0.0     0.0     0.0     0.0     0.0     0.0     0.0     0.0     0.0     0.0    218.     87.      7.     16.     16.     14.     15.     14.     33.     41.     0.2     0.1     0.0     0.0     0.0     0.0     0.0     0.0     0.0     0.0     0.0     0.0     0.0     0.0     0.0     0.0     0.0     0.0     0.0     0.0     1.2     0.4     0.0     0.0     0.0     0.0     0.0     0.0     0.0     0.0
   15 202   126    0.12    0.10    0.43    0.13   130.6   0.011   0.131   0.116   0.464     1.1     0.7     4.1     0.0     623    0.00    0.62    0.00    1.82     0.0     0.0     0.0     0.0     0.0     0.0     0.0     0.0     0.0     0.0    176.     73.      7.     15.     15.     13.     14.     13.     31.     40.     0.2     0.1     0.0     0.0     0.0     0.0     0.0     0.0     0.0     0.0     0.0     0.0     0.0     0.0     0.0     0.0     0.0     0.0     0.0     0.0     1.0     0.3     0.0     0.0     0.0     0.0     0.0     0.0     0.0     0.0
   15 203   127    0.12    0.10    0.43    0.13   131.1   0.011   0.131   0.116   0.466     1.0     0.7     3.6     0.0     576    0.00    0.58    0.00    1.60     0.0     0.0     0.0     0.0     0.0     0.0     0.0     0.0     0.0     0.0    144.     61.      7.     14.     14.     13.     13.     12.     30.     39.     0.1     0.1     0.0     0.0     0.0     0.0     0.0     0.0     0.0     0.0     0.0     0.0     0.0     0.0     0.0     0.0     0.0     0.0     0.0     0.0     0.8     0.3     0.0     0.0     0.0     0.0     0.0     0.0     0.0     0.0
   15 204   128    0.12    0.10    0.43    0.13   131.7   0.011   0.132   0.116   0.467     1.0     0.7     3.2     0.0     530    0.00    0.53    0.00    1.39     0.0     0.0     0.0     0.0     0.0     0.0     0.0     0.0     0.0     0.0    117.     49.      7.     13.     14.     12.     12.     11.     28.     36.     0.1     0.0     0.0     0.0     0.0     0.0     0.0     0.0     0.0     0.0     0.0     0.0     0.0     0.0     0.0     0.0     0.0     0.0     0.0     0.0     0.7     0.2     0.0     0.0     0.0     0.0     0.0     0.0     0.0     0.0
   15 205   129    0.12    0.10    0.43    0.13   132.2   0.011   0.132   0.116   0.468     0.8     0.6     2.7     0.0     520    0.00    0.52    0.00    1.35     0.0     0.0     0.0     0.0     0.0     0.0     0.0     0.0     0.0     0.0    130.     39.      7.     13.     13.     11.     11.     11.     25.     33.     0.1     0.0     0.0     0.0     0.0     0.0     0.0     0.0     0.0     0.0     0.0     0.0     0.0     0.0     0.0     0.0     0.0     0.0     0.0     0.0     0.7     0.2     0.0     0.0     0.0     0.0     0.0     0.0     0.0     0.0
   15 206   130    0.12    0.10    0.44    0.13   132.7   0.011   0.133   0.116   0.470     0.8     0.6     2.5     0.0     481    0.00    0.48    0.00    1.20     0.0     0.0     0.0     0.0     0.0     0.0     0.0     0.0     0.0     0.0    108.     32.      6.     12.     12.     10.     11.     10.     23.     30.     0.1     0.0     0.0     0.0     0.0     0.0     0.0     0.0     0.0     0.0     0.0     0.0     0.0     0.0     0.0     0.0     0.0     0.0     0.0     0.0     0.6     0.1     0.0     0.0     0.0     0.0     0.0     0.0     0.0     0.0
   15 207   131    0.12    0.10    0.44    0.13   133.1   0.011   0.133   0.116   0.471     0.7     0.6     2.2     0.0     437    0.00    0.44    0.00    1.05     0.0     0.0     0.0     0.0     0.0     0.0     0.0     0.0     0.0     0.0     90.     26.      6.     11.     11.      9.     10.      9.     21.     26.     0.1     0.0     0.0     0.0     0.0     0.0     0.0     0.0     0.0     0.0     0.0     0.0     0.0     0.0     0.0     0.0     0.0     0.0     0.0     0.0     0.5     0.1     0.0     0.0     0.0     0.0     0.0     0.0     0.0     0.0
   15 208   132    0.12    0.10    0.44    0.13   133.5   0.011   0.134   0.116   0.472     0.7     0.6     2.0     0.0     396    0.00    0.40    0.00    0.92     0.0     0.0     0.0     0.0     0.0     0.0     0.0     0.0     0.0     0.0     83.     20.      5.     10.     10.      8.      8.      8.     18.     22.     0.1     0.0     0.0     0.0     0.0     0.0     0.0     0.0     0.0     0.0     0.0     0.0     0.0     0.0     0.0     0.0     0.0     0.0     0.0     0.0     0.5     0.1     0.0     0.0     0.0     0.0     0.0     0.0     0.0     0.0
   15 209   133    0.12    0.10    0.44    0.13   133.9   0.011   0.134   0.116   0.472     0.6     0.5     1.6     0.0     355    0.00    0.36    0.00    0.72     0.0     0.0     0.0     0.0     0.0     0.0     0.0     0.0     0.0     0.0     65.     17.      5.      9.      9.      7.      8.      7.     16.     20.     0.1     0.0     0.0     0.0     0.0     0.0     0.0     0.0     0.0     0.0     0.0     0.0     0.0     0.0     0.0     0.0     0.0     0.0     0.0     0.0     0.3     0.1     0.0     0.0     0.0     0.0     0.0     0.0     0.0     0.0
   15 210   134    0.12    0.10    0.44    0.13   134.2   0.011   0.134   0.116   0.473     0.6     0.5     1.6     0.0     350    0.00    0.35    0.00    0.75     0.0     0.0     0.0     0.0     0.0     0.0     0.0     0.0     0.0     0.0     73.     15.      5.      8.      8.      7.      7.      7.     15.     18.     0.1     0.0     0.0     0.0     0.0     0.0     0.0     0.0     0.0     0.0     0.0     0.0     0.0     0.0     0.0     0.0     0.0     0.0     0.0     0.0     0.3     0.1     0.0     0.0     0.0     0.0     0.0     0.0     0.0     0.0
   15 211   135    0.12    0.11    0.45    0.13   134.5   0.011   0.135   0.116   0.474     0.6     0.5     1.5     0.0     320    0.00    0.32    0.00    0.70     0.0     0.0     0.0     0.0     0.0     0.0     0.0     0.0     0.0     0.0     63.     12.      4.      8.      8.      6.      6.      6.     13.     16.     0.1     0.0     0.0     0.0     0.0     0.0     0.0     0.0     0.0     0.0     0.0     0.0     0.0     0.0     0.0     0.0     0.0     0.0     0.0     0.0     0.3     0.1     0.0     0.0     0.0     0.0     0.0     0.0     0.0     0.0
   15 212   136    0.13    0.11    0.45    0.13   134.8   0.011   0.135   0.116   0.474     0.6     0.5     1.4     0.0     292    0.00    0.29    0.00    0.62     0.0     0.0     0.0     0.0     0.0     0.0     0.0     0.0     0.0     0.0     48.     11.      4.      7.      7.      6.      6.      6.     13.     15.     0.0     0.0     0.0     0.0     0.0     0.0     0.0     0.0     0.0     0.0     0.0     0.0     0.0     0.0     0.0     0.0     0.0     0.0     0.0     0.0     0.3     0.1     0.0     0.0     0.0     0.0     0.0     0.0     0.0     0.0
   15 213   137    0.13    0.11    0.45    0.13   135.1   0.011   0.135   0.116   0.475     0.6     0.5     1.3     0.0     287    0.00    0.29    0.00    0.60     0.0     0.0     0.0     0.0     0.0     0.0     0.0     0.0     0.0     0.0     44.     11.      4.      7.      7.      6.      6.      6.     13.     15.     0.0     0.0     0.0     0.0     0.0     0.0     0.0     0.0     0.0     0.0     0.0     0.0     0.0     0.0     0.0     0.0     0.0     0.0     0.0     0.0     0.3     0.1     0.0     0.0     0.0     0.0     0.0     0.0     0.0     0.0
   15 214   138    0.13    0.11    0.45    0.13   135.4   0.011   0.135   0.116   0.475     0.5     0.5     1.2     0.0     276    0.00    0.28    0.00    0.57     0.0     0.0     0.0     0.0     0.0     0.0     0.0     0.0     0.0     0.0     39.     10.      4.      7.      7.      6.      6.      6.     12.     15.     0.0     0.0     0.0     0.0     0.0     0.0     0.0     0.0     0.0     0.0     0.0     0.0     0.0     0.0     0.0     0.0     0.0     0.0     0.0     0.0     0.2     0.0     0.0     0.0     0.0     0.0     0.0     0.0     0.0     0.0
[...]
   15 203   127    0.03    0.08    0.06    0.09    48.5   0.007   0.049   0.082   0.090     0.6     0.3     1.5     0.0     682    0.00    0.68    0.00    1.50     0.0     0.0     0.0     0.0     0.0     0.0     0.0     0.0     0.0     0.0     53.    133.     10.     23.     25.     27.     29.     31.     52.     52.     0.1     0.1     0.0     0.0     0.0     0.0     0.0     0.0     0.1     0.1     0.0     0.0     0.0     0.0     0.0     0.0     0.0     0.0     0.0     0.0     0.3     0.6     0.0     0.1     0.1     0.0     0.0     0.0     0.1     0.1
   15 204   128    0.03    0.08    0.06    0.09    49.2   0.007   0.050   0.082   0.091     0.6     0.3     1.5     0.0     661    0.00    0.66    0.00    1.42     0.0     0.0     0.0     0.0     0.0     0.0     0.0     0.0     0.0     0.0     48.    119.     10.     23.     24.     27.     29.     31.     52.     52.     0.0     0.1     0.0     0.0     0.0     0.0     0.0     0.0     0.1     0.1     0.0     0.0     0.0     0.0     0.0     0.0     0.0     0.0     0.0     0.0     0.3     0.5     0.0     0.1     0.1     0.0     0.0     0.0     0.1     0.1
   15 205   129    0.03    0.08    0.06    0.09    49.8   0.007   0.050   0.082   0.093     0.6     0.3     1.4     0.0     648    0.00    0.65    0.00    1.39     0.0     0.0     0.0     0.0     0.0     0.0     0.0     0.0     0.0     0.0     57.    105.      9.     21.     23.     26.     28.     30.     51.     51.     0.1     0.1     0.0     0.0     0.0     0.0     0.0     0.0     0.1     0.1     0.0     0.0     0.0     0.0     0.0     0.0     0.0     0.0     0.0     0.0     0.3     0.5     0.0     0.1     0.1     0.0     0.0     0.0     0.1     0.1
   15 206   130    0.03    0.08    0.06    0.09    50.4   0.007   0.051   0.082   0.094     0.6     0.3     1.4     0.0     628    0.00    0.63    0.00    1.32     0.0     0.0     0.0     0.0     0.0     0.0     0.0     0.0     0.0     0.0     55.     93.      8.     20.     22.     25.     27.     30.     50.     51.     0.1     0.1     0.0     0.0     0.0     0.0     0.0     0.0     0.0     0.1     0.0     0.0     0.0     0.0     0.0     0.0     0.0     0.0     0.0     0.0     0.3     0.4     0.0     0.1     0.0     0.0     0.0     0.0     0.1     0.1
   15 207   131    0.04    0.08    0.06    0.09    51.0   0.007   0.051   0.082   0.095     0.6     0.2     1.4     0.0     584    0.00    0.58    0.00    1.21     0.0     0.0     0.0     0.0     0.0     0.0     0.0     0.0     0.0     0.0     51.     79.      8.     18.     20.     23.     25.     28.     47.     48.     0.1     0.1     0.0     0.0     0.0     0.0     0.0     0.0     0.0     0.0     0.0     0.0     0.0     0.0     0.0     0.0     0.0     0.0     0.0     0.0     0.3     0.3     0.0     0.1     0.0     0.0     0.0     0.0     0.1     0.1
   15 208   132    0.04    0.08    0.07    0.09    51.6   0.007   0.052   0.082   0.096     0.5     0.2     1.3     0.0     525    0.00    0.53    0.00    1.07     0.0     0.0     0.0     0.0     0.0     0.0     0.0     0.0     0.0     0.0     50.     64.      6.     16.     17.     20.     22.     25.     42.     44.     0.1     0.1     0.0     0.0     0.0     0.0     0.0     0.0     0.0     0.0     0.0     0.0     0.0     0.0     0.0     0.0     0.0     0.0     0.0     0.0     0.3     0.3     0.0     0.0     0.0     0.0     0.0     0.0     0.0     0.0
   15 209   133    0.04    0.08    0.07    0.09    52.0   0.007   0.052   0.082   0.097     0.5     0.2     1.2     0.0     483    0.00    0.48    0.00    0.93     0.0     0.0     0.0     0.0     0.0     0.0     0.0     0.0     0.0     0.0     49.     53.      6.     14.     15.     18.     20.     23.     39.     40.     0.0     0.1     0.0     0.0     0.0     0.0     0.0     0.0     0.0     0.0     0.0     0.0     0.0     0.0     0.0     0.0     0.0     0.0     0.0     0.0     0.2     0.2     0.0     0.0     0.0     0.0     0.0     0.0     0.0     0.0
   15 210   134    0.04    0.08    0.07    0.09    52.5   0.007   0.053   0.082   0.098     0.5     0.2     1.2     0.0     462    0.00    0.46    0.00    0.89     0.0     0.0     0.0     0.0     0.0     0.0     0.0     0.0     0.0     0.0     52.     47.      5.     13.     14.     17.     19.     21.     37.     38.     0.1     0.0     0.0     0.0     0.0     0.0     0.0     0.0     0.0     0.0     0.0     0.0     0.0     0.0     0.0     0.0     0.0     0.0     0.0     0.0     0.2     0.2     0.0     0.0     0.0     0.0     0.0     0.0     0.0     0.0
   15 211   135    0.04    0.08    0.07    0.09    52.9   0.007   0.053   0.082   0.099     0.5     0.2     1.1     0.0     425    0.00    0.42    0.00    0.81     0.0     0.0     0.0     0.0     0.0     0.0     0.0     0.0     0.0     0.0     51.     39.      5.     11.     12.     15.     17.     19.     33.     35.     0.1     0.0     0.0     0.0     0.0     0.0     0.0     0.0     0.0     0.0     0.0     0.0     0.0     0.0     0.0     0.0     0.0     0.0     0.0     0.0     0.2     0.2     0.0     0.0     0.0     0.0     0.0     0.0     0.0     0.0
   15 212   136    0.04    0.08    0.07    0.09    53.3   0.007   0.054   0.082   0.100     0.5     0.2     1.1     0.0     406    0.00    0.41    0.00    0.79     0.0     0.0     0.0     0.0     0.0     0.0     0.0     0.0     0.0     0.0     54.     35.      4.     11.     12.     14.     16.     18.     31.     33.     0.1     0.0     0.0     0.0     0.0     0.0     0.0     0.0     0.0     0.0     0.0     0.0     0.0     0.0     0.0     0.0     0.0     0.0     0.0     0.0     0.2     0.2     0.0     0.0     0.0     0.0     0.0     0.0     0.0     0.0
   15 213   137    0.04    0.08    0.07    0.09    53.7   0.007   0.054   0.082   0.100     0.5     0.2     1.1     0.0     409    0.00    0.41    0.00    0.83     0.0     0.0     0.0     0.0     0.0     0.0     0.0     0.0     0.0     0.0     60.     33.      4.     11.     11.     14.     16.     18.     31.     33.     0.1     0.0     0.0     0.0     0.0     0.0     0.0     0.0     0.0     0.0     0.0     0.0     0.0     0.0     0.0     0.0     0.0     0.0     0.0     0.0     0.3     0.1     0.0     0.0     0.0     0.0     0.0     0.0     0.0     0.0
   15 214   138    0.04    0.08    0.07    0.09    54.1   0.007   0.055   0.082   0.101     0.5     0.2     1.1     0.0     399    0.00    0.40    0.00    0.82     0.0     0.0     0.0     0.0     0.0     0.0     0.0     0.0     0.0     0.0     60.     30.      4.     10.     11.     13.     15.     18.     30.     32.     0.1     0.0     0.0     0.0     0.0     0.0     0.0     0.0     0.0     0.0     0.0     0.0     0.0     0.0     0.0     0.0     0.0     0.0     0.0     0.0     0.3     0.1     0.0     0.0     0.0     0.0     0.0     0.0     0.0     0.0
   15 215   139    0.04    0.08    0.07    0.09    54.5   0.007   0.055   0.082   0.102     0.5     0.1     1.1     0.0     398    0.00    0.40    0.00    0.82     0.0     0.0     0.0     0.0     0.0     0.0     0.0     0.0     0.0     0.0     58.     29.      4.     10.     11.     13.     16.     18.     31.     32.     0.1     0.0     0.0     0.0     0.0     0.0     0.0     0.0     0.0     0.0     0.0     0.0     0.0     0.0     0.0     0.0     0.0     0.0     0.0     0.0     0.3     0.1     0.0     0.0     0.0     0.0     0.0     0.0     0.0     0.0
   15 216   140    0.04    0.08    0.08    0.09    54.9   0.007   0.055   0.082   0.103     0.5     0.1     1.1     0.0     411    0.00    0.41    0.00    0.85     0.0     0.0     0.0     0.0     0.0     0.0     0.0     0.0     0.0     0.0     57.     29.      5.     11.     12.     14.     16.     19.     32.     34.     0.1     0.0     0.0     0.0     0.0     0.0     0.0     0.0     0.0     0.0     0.0     0.0     0.0     0.0     0.0     0.0     0.0     0.0     0.0     0.0     0.3     0.1     0.0     0.0     0.0     0.0     0.0     0.0     0.0     0.0
   15 217   141    0.04    0.08    0.08    0.09    55.4   0.007   0.056   0.082   0.104     0.5     0.1     1.1     0.0     438    0.00    0.44    0.00    0.90     0.0     0.0     0.0     0.0     0.0     0.0     0.0     0.0     0.0     0.0     58.     30.      5.     12.     13.     15.     18.     20.     35.     37.     0.1     0.0     0.0     0.0     0.0     0.0     0.0     0.0     0.0     0.0     0.0     0.0     0.0     0.0     0.0     0.0     0.0     0.0     0.0     0.0     0.3     0.1     0.0     0.0     0.0     0.0     0.0     0.0     0.0     0.0
   15 218   142    0.04    0.08    0.08    0.09    55.8   0.007   0.056   0.082   0.105     0.5     0.1     1.1     0.0     457    0.00    0.46    0.00    0.93     0.0     0.0     0.0     0.0     0.0     0.0     0.0     0.0     0.0     0.0     58.     29.      5.     13.     13.     16.     19.     22.     37.     39.     0.1     0.0     0.0     0.0     0.0     0.0     0.0     0.0     0.0     0.0     0.0     0.0     0.0     0.0     0.0     0.0     0.0     0.0     0.0     0.0     0.3     0.1     0.0     0.0     0.0     0.0     0.0     0.0     0.0     0.0
   15 219   143    0.04    0.08    0.08    0.09    56.3   0.007   0.057   0.082   0.106     0.5     0.1     1.1     0.0     483    0.00    0.48    0.00    0.97     0.0     0.0     0.0     0.0     0.0     0.0     0.0     0.0     0.0     0.0     57.     29.      6.     14.     14.     17.     20.     23.     40.     42.     0.1     0.0     0.0     0.0     0.0     0.0     0.0     0.0     0.0     0.0     0.0     0.0     0.0     0.0     0.0     0.0     0.0     0.0     0.0     0.0     0.3     0.1     0.0     0.0     0.0     0.0     0.0     0.0     0.0     0.0
   15 220   144    0.04    0.08    0.08    0.09    56.8   0.007   0.057   0.082   0.107     0.5     0.1     1.1     0.0     505    0.00    0.51    0.00    0.99     0.0     0.0     0.0     0.0     0.0     0.0     0.0     0.0     0.0     0.0     56.     28.      6.     14.     15.     18.     22.     25.     43.     45.     0.1     0.0     0.0     0.0     0.0     0.0     0.0     0.0     0.0     0.0     0.0     0.0     0.0     0.0     0.0     0.0     0.0     0.0     0.0     0.0     0.3     0.1     0.0     0.0     0.0     0.0     0.0     0.0     0.0     0.0
   15 221   145    0.04    0.08    0.08    0.09    57.4   0.007   0.058   0.082   0.108     0.4     0.1     1.0     0.0     550    0.00    0.55    0.00    1.10     0.0     0.0     0.0     0.0     0.0     0.0     0.0     0.0     0.0     0.0     80.     26.      7.     15.     16.     18.     23.     27.     45.     48.     0.1     0.0     0.0     0.0     0.0     0.0     0.0     0.0     0.0     0.0     0.0     0.0     0.0     0.0     0.0     0.0     0.0     0.0     0.0     0.0     0.4     0.1     0.0     0.0     0.0     0.0     0.0     0.0     0.1     0.1
   15 222   146    0.04    0.08    0.08    0.09    57.9   0.007   0.058   0.082   0.109     0.5     0.1     1.0     0.0     561    0.00    0.56    0.00    1.12     0.0     0.0     0.0     0.0     0.0     0.0     0.0     0.0     0.0     0.0     80.     24.      7.     15.     16.     18.     23.     27.     47.     49.     0.1     0.0     0.0     0.0     0.0     0.0     0.0     0.0     0.0     0.0     0.0     0.0     0.0     0.0     0.0     0.0     0.0     0.0     0.0     0.0     0.4     0.1     0.0     0.0     0.0     0.0     0.0     0.0     0.1     0.1
   15 223   147    0.04    0.08    0.08    0.09    58.5   0.007   0.059   0.082   0.110     0.5     0.1     1.0     0.0     565    0.00    0.57    0.00    1.12     0.0     0.0     0.0     0.0     0.0     0.0     0.0     0.0     0.0     0.0     77.     22.      7.     15.     16.     18.     23.     28.     47.     50.     0.1     0.0     0.0     0.0     0.0     0.0     0.0     0.0     0.0     0.1     0.0     0.0     0.0     0.0     0.0     0.0     0.0     0.0     0.0     0.0     0.4     0.1     0.0     0.0     0.0     0.0     0.0     0.0     0.1     0.1
   15 224   148    0.04    0.08    0.08    0.09    59.1   0.007   0.059   0.082   0.111     0.5     0.1     1.0     0.0     563    0.00    0.56    0.00    1.09     0.0     0.0     0.0     0.0     0.0     0.0     0.0     0.0     0.0     0.0     71.     20.      7.     15.     16.     18.     23.     28.     48.     52.     0.1     0.0     0.0     0.0     0.0     0.0     0.0     0.0     0.0     0.1     0.0     0.0     0.0     0.0     0.0     0.0     0.0     0.0     0.0     0.0     0.4     0.1     0.0     0.0     0.0     0.0     0.0     0.0     0.1     0.1
   15 225   149    0.04    0.08    0.08    0.09    59.6   0.007   0.060   0.082   0.112     0.5     0.1     1.0     0.0     551    0.00    0.55    0.00    1.04     0.0     0.0     0.0     0.0     0.0     0.0     0.0     0.0     0.0     0.0     63.     19.      7.     14.     15.     18.     23.     28.     48.     52.     0.1     0.0     0.0     0.0     0.0     0.0     0.0     0.0     0.0     0.1     0.0     0.0     0.0     0.0     0.0     0.0     0.0     0.0     0.0     0.0     0.4     0.1     0.0     0.0     0.0     0.0     0.0     0.0     0.1     0.1
   15 226   150    0.04    0.08    0.09    0.09    60.2   0.007   0.061   0.082   0.113     0.5     0.1     1.0     0.0     539    0.00    0.54    0.00    0.99     0.0     0.0     0.0     0.0     0.0     0.0     0.0     0.0     0.0     0.0     55.     17.      7.     14.     15.     17.     22.     28.     48.     52.     0.1     0.0     0.0     0.0     0.0     0.0     0.0     0.0     0.0     0.1     0.0     0.0     0.0     0.0     0.0     0.0     0.0     0.0     0.0     0.0     0.3     0.1     0.0     0.0     0.0     0.0     0.0     0.0     0.1     0.1
   15 227   151    0.05    0.08    0.09    0.09    60.7   0.007   0.061   0.082   0.114     0.4     0.1     0.9     0.0     570    0.00    0.57    0.00    1.04     0.0     0.0     0.0     0.0     0.0     0.0     0.0     0.0     0.0     0.0     86.     17.      7.     14.     15.     17.     22.     28.     48.     52.     0.1     0.0     0.0     0.0     0.0     0.0     0.0     0.0     0.0     0.1     0.0     0.0     0.0     0.0     0.0     0.0     0.0     0.0     0.0     0.0     0.4     0.1     0.0     0.0     0.0     0.0     0.0     0.0     0.1     0.1
   15 228   152    0.05    0.08    0.09    0.09    61.3   0.007   0.062   0.082   0.115     0.4     0.1     0.9     0.0     590    0.00    0.59    0.00    1.16     0.0     0.0     0.0     0.0     0.0     0.0     0.0     0.0     0.0     0.0    119.     15.      6.     13.     14.     16.     21.     27.     47.     51.     0.1     0.0     0.0     0.0     0.0     0.0     0.0     0.0     0.0     0.1     0.0     0.0     0.0     0.0     0.0     0.0     0.0     0.0     0.0     0.0     0.5     0.1     0.0     0.0     0.0     0.0     0.0     0.0     0.1     0.1
   15 229   153    0.05    0.08    0.09    0.09    61.9   0.007   0.062   0.082   0.116     0.3     0.0     0.7     0.0     557    0.00    0.56    0.00    0.80     0.0     0.0     0.0     0.0     0.0     0.0     0.0     0.0     0.0     0.0    116.     16.      6.     12.     13.     15.     20.     25.     43.     47.     0.1     0.0     0.0     0.0     0.0     0.0     0.0     0.0     0.0     0.0     0.0     0.0     0.0     0.0     0.0     0.0     0.0     0.0     0.0     0.0     0.2     0.1     0.0     0.0     0.0     0.0     0.0     0.0     0.1     0.1
   15 230   154    0.05    0.08    0.09    0.09    62.4   0.007   0.063   0.082   0.117     0.2     0.0     0.4     0.0     520    0.00    0.52    0.00    0.66     0.0     0.0     0.0     0.0     0.0     0.0     0.0     0.0     0.0     0.0    104.     27.      5.     11.     11.     13.     18.     22.     39.     43.     0.1     0.0     0.0     0.0     0.0     0.0     0.0     0.0     0.0     0.0     0.0     0.0     0.0     0.0     0.0     0.0     0.0     0.0     0.0     0.0     0.1     0.1     0.0     0.0     0.0     0.0     0.0     0.0     0.0     0.0
   15 231   155    0.05    0.08    0.09    0.09    63.0   0.007   0.063   0.082   0.118     0.5     0.0     0.9     0.0     570    0.00    0.57    0.00    1.20     0.0     0.0     0.0     0.0     0.0     0.0     0.0     0.0     0.0     0.0    158.     52.      4.      9.     10.     12.     16.     20.     36.     40.     0.2     0.1     0.0     0.0     0.0     0.0     0.0     0.0     0.0     0.0     0.0     0.0     0.0     0.0     0.0     0.0     0.0     0.0     0.0     0.0     0.6     0.2     0.0     0.0     0.0     0.0     0.0     0.0     0.0     0.0
   15 232   156    0.05    0.08    0.09    0.09    63.5   0.007   0.064   0.082   0.119     0.5     0.0     1.0     0.0     553    0.00    0.55    0.00    1.31     0.0     0.0     0.0     0.0     0.0     0.0     0.0     0.0     0.0     0.0    154.     69.      4.      8.      9.     11.     14.     18.     33.     36.     0.2     0.1     0.0     0.0     0.0     0.0     0.0     0.0     0.0     0.0     0.0     0.0     0.0     0.0     0.0     0.0     0.0     0.0     0.0     0.0     0.6     0.3     0.0     0.0     0.0     0.0     0.0     0.0     0.0     0.0
   15 233   157    0.05    0.08    0.09    0.09    64.1   0.007   0.064   0.082   0.121     0.5     0.0     1.1     0.0     542    0.00    0.54    0.00    1.31     0.0     0.0     0.0     0.0     0.0     0.0     0.0     0.0     0.0     0.0    152.     78.      4.      8.      8.     10.     13.     17.     31.     34.     0.2     0.1     0.0     0.0     0.0     0.0     0.0     0.0     0.0     0.0     0.0     0.0     0.0     0.0     0.0     0.0     0.0     0.0     0.0     0.0     0.6     0.3     0.0     0.0     0.0     0.0     0.0     0.0     0.0     0.0
   15 234   158    0.05    0.08    0.09    0.09    64.6   0.007   0.065   0.082   0.122     0.5     0.0     1.1     0.0     543    0.00    0.54    0.00    1.34     0.0     0.0     0.0     0.0     0.0     0.0     0.0     0.0     0.0     0.0    151.     85.      4.      7.      8.     10.     13.     17.     30.     34.     0.2     0.1     0.0     0.0     0.0     0.0     0.0     0.0     0.0     0.0     0.0     0.0     0.0     0.0     0.0     0.0     0.0     0.0     0.0     0.0     0.6     0.3     0.0     0.0     0.0     0.0     0.0     0.0     0.0     0.0
   15 235   159    0.05    0.08    0.09    0.09    65.2   0.007   0.066   0.082   0.123     0.5     0.0     1.2     0.0     563    0.00    0.56    0.00    1.42     0.0     0.0     0.0     0.0     0.0     0.0     0.0     0.0     0.0     0.0    156.     95.      4.      8.      8.     10.     13.     17.     31.     34.     0.2     0.1     0.0     0.0     0.0     0.0     0.0     0.0     0.0     0.0     0.0     0.0     0.0     0.0     0.0     0.0     0.0     0.0     0.0     0.0     0.7     0.4     0.0     0.0     0.0     0.0     0.0     0.0     0.0     0.0
   15 236   160    0.05    0.08    0.10    0.09    65.8   0.007   0.066   0.082   0.125     0.5     0.0     1.2     0.0     587    0.00    0.59    0.00    1.47     0.0     0.0     0.0     0.0     0.0     0.0     0.0     0.0     0.0     0.0    160.    106.      4.      8.      9.     10.     14.     18.     32.     35.     0.2     0.1     0.0     0.0     0.0     0.0     0.0     0.0     0.0     0.0     0.0     0.0     0.0     0.0     0.0     0.0     0.0     0.0     0.0     0.0     0.7     0.4     0.0     0.0     0.0     0.0     0.0     0.0     0.0     0.0
   15 237   161    0.05    0.08    0.10    0.09    66.3   0.007   0.067   0.082   0.126     0.2     0.0     0.5     0.0     546    0.00    0.55    0.00    0.60     0.0     0.0     0.0     0.0     0.0     0.0     0.0     0.0     0.0     0.0    112.     97.      5.      8.      9.     11.     15.     19.     34.     37.     0.1     0.1     0.0     0.0     0.0     0.0     0.0     0.0     0.0     0.0     0.0     0.0     0.0     0.0     0.0     0.0     0.0     0.0     0.0     0.0     0.1     0.1     0.0     0.0     0.0     0.0     0.0     0.0     0.0     0.0
