*PLANT N OUTPUT FILE

*DSSAT Cropping System Model Ver. 4.8.5.000 -release  MAR 01, 2026 09:34:20

*RUN   1        : 1                         WHAPS048 TUDU1501    1
 MODEL          : WHAPS048 - Wheat
 EXPERIMENT     : TUDU1501 WH
 DATA PATH      :
 TREATMENT  1   : 1                         WHAPS048
  
@YEAR DOY   DAS   DAP   CNAD   GNAD   GN%D   VN%D   NUPC   LNAD   SNAD   LN%D   SN%D   RN%D   SNN0C   SNN1C NFact1 NFact2 NFact3 NFact4  RootN lfshthN
   15 077     1     0    0.0    0.0   0.00   0.00    0.0    0.0    0.0    0.0   0.00   0.00    0.00    0.00   0.00   0.00   0.00   0.00   0.00   0.00
   15 078     2     1    0.0    0.0   0.00   0.00    0.0    0.0    0.0    0.0   0.00   0.00    0.00    0.00   0.00   0.00   0.00   0.00   0.00   0.00
   15 079     3     2    0.0    0.0   0.00   0.00    0.0    0.0    0.0    0.0   0.00   0.00    0.00    0.00   0.00   0.00   0.00   0.00   0.00   0.00
   15 080     4     3    0.0    0.0   0.00   0.00    0.0    0.0    0.0    0.0   0.00   0.00    0.00    0.00   0.00   0.00   0.00   0.00   0.00   0.00
   15 081     5     4    0.0    0.0   0.00   0.00    0.0    0.0    0.0    0.0   0.00   0.00    0.00    0.00   0.00   0.00   0.00   0.00   0.00   0.00
   15 082     6     5    0.0    0.0   0.00   0.00    0.0    0.0    0.0    0.0   0.00   0.00    0.00    0.00   0.00   0.00   0.00   0.00   0.00   0.00
   15 083     7     6    0.0    0.0   0.00   0.00    0.0    0.0    0.0    0.0   0.00   0.00    0.00    0.00   0.00   0.00   0.00   0.00   0.00   0.00
   15 084     8     7    0.0    0.0   0.00   0.00    0.0    0.0    0.0    0.0   0.00   0.00    0.00    0.00   0.00   0.00   0.00   0.00   0.00   0.00
   15 085     9     8    0.0    0.0   0.00   0.00    0.0    0.0    0.0    0.0   0.00   0.00    0.00    0.00   0.00   0.00   0.00   0.00   0.00   0.00
   15 086    10     9    0.0    0.0   0.00   0.00    0.0    0.0    0.0    0.0   0.00   0.00    0.00    0.00   0.00   0.00   0.00   0.00   0.00   0.00
   15 087    11    10    0.0    0.0   0.00   0.00    0.0    0.0    0.0    0.0   0.00   0.00    0.00    0.00   0.00   0.00   0.00   0.00   0.00   0.00
   15 088    12    11    1.0    0.0   0.00   8.24    0.2    0.6    0.0    5.1   6.36   4.42    0.00    0.00   0.00   0.00   0.00   0.00   1.07   0.41
   15 089    13    12    1.2    0.0   0.00   7.89    0.3    0.7    0.0    5.5   6.36   4.32    0.00    0.00   0.00   0.00   0.00   0.00   1.06   0.41
   15 090    14    13    1.3    0.0   0.00   6.89    0.4    0.8    0.0    5.1   6.36   4.21    0.00    0.00   0.00   0.00   0.00   0.00   1.05   0.41
   15 091    15    14    1.5    0.0   0.00   7.36    0.6    1.0    0.0    6.0   6.36   4.06    0.00    0.00   0.00   0.00   0.00   0.00   1.04   0.41
   15 092    16    15    1.5    0.0   0.00   7.14    0.7    1.1    0.0    6.0   6.36   3.98    0.00    0.00   0.00   0.00   0.00   0.00   1.03   0.41
   15 093    17    16    1.5    0.0   0.00   6.40    0.7    1.1    0.0    5.7   6.36   3.79    0.00    0.00   0.00   0.00   0.00   0.00   1.02   0.41
   15 094    18    17    1.6    0.0   0.00   6.34    0.8    1.2    0.0    5.9   6.36   3.70    0.00    0.00   0.00   0.00   0.00   0.00   1.01   0.41
   15 095    19    18    1.7    0.0   0.00   6.22    0.8    1.2    0.0    6.0   6.36   3.53    0.00    0.00   0.00   0.00   0.00   0.00   1.00   0.41
   15 096    20    19    1.7    0.0   0.00   6.15    0.9    1.3    0.0    6.0   6.36   3.41    0.00    0.00   0.00   0.00   0.00   0.00   0.99   0.41
   15 097    21    20    1.8    0.0   0.00   5.81    0.9    1.3    0.0    5.8   6.36   3.19    0.00    0.00   0.00   0.00   0.00   0.00   0.98   0.41
   15 098    22    21    1.8    0.0   0.00   4.93    1.0    1.4    0.0    5.1   6.36   2.96    0.00    0.00   0.00   0.00   0.00   0.00   0.97   0.44
   15 099    23    22    2.3    0.0   0.00   4.78    1.4    1.6    0.0    4.9   6.36   2.69    0.00    0.00   0.00   0.31   0.53   0.53   0.96   0.60
   15 100    24    23    2.8    0.0   0.00   4.76    2.0    2.0    0.0    4.9   6.36   2.40    0.00    0.00   0.02   0.34   0.57   0.57   0.95   0.83
   15 101    25    24    3.6    0.0   0.00   4.87    2.7    2.4    0.0    4.9   6.36   2.17    0.00    0.00   0.00   0.34   0.56   0.56   0.94   1.12
   15 102    26    25    4.3    0.0   0.00   4.79    3.5    2.9    0.0    4.8   6.36   1.94    0.00    0.00   0.00   0.29   0.50   0.50   0.93   1.38
   15 103    27    26    5.2    0.0   0.00   4.80    4.4    3.4    0.0    4.8   6.36   1.82    0.00    0.00   0.00   0.30   0.51   0.51   0.99   1.77
   15 104    28    27    5.7    0.0   0.00   4.38    5.0    3.7    0.0    4.5   6.36   1.65    0.00    0.00   0.00   0.28   0.49   0.49   1.03   2.01
   15 105    29    28    6.1    0.0   0.00   3.96    5.5    3.9    0.0    4.1   6.36   1.40    0.00    0.00   0.09   0.39   0.63   0.63   1.09   2.21
   15 106    30    29    6.6    0.0   0.00   3.71    5.9    4.2    0.0    3.9   6.36   1.34    0.00    0.00   0.26   0.51   0.76   0.76   1.15   2.42
   15 107    31    30   10.1    0.0   0.00   5.25    9.9    6.0    0.0    5.2   6.36   1.84    0.00    0.00   0.36   0.57   0.82   0.82   1.66   4.03
   15 108    32    31   11.4    0.0   0.00   5.61   11.6    6.8    0.0    5.6   6.36   2.00    0.00    0.00   0.00   0.08   0.16   0.16   2.01   4.64
   15 109    33    32   12.3    0.0   0.00   5.55   12.9    7.2    0.0    5.5   6.36   1.99    0.00    0.00   0.00   0.00   0.00   0.00   2.32   5.08
   15 110    34    33   13.7    0.0   0.00   5.46   14.7    7.9    0.0    5.4   6.36   1.96    0.00    0.00   0.00   0.00   0.00   0.00   2.79   5.73
   15 111    35    34   15.5    0.0   0.00   5.36   17.2    8.9    0.0    5.3   6.36   1.93    0.00    0.00   0.00   0.00   0.00   0.00   3.44   6.63
   15 112    36    35   17.6    0.0   0.00   5.30   20.1   10.0    0.0    5.3   6.36   1.92    0.00    0.00   0.00   0.00   0.00   0.00   4.18   7.63
   15 113    37    36   18.6    0.0   0.00   5.33   21.5   10.5    0.0    5.3   6.36   1.94    0.00    0.00   0.00   0.00   0.00   0.00   4.49   8.07
   15 114    38    37   20.2    0.0   0.00   5.24   23.7   11.3    0.0    5.2   6.36   1.93    0.00    0.00   0.00   0.00   0.00   0.00   5.06   8.85
   15 115    39    38   22.3    0.0   0.00   5.16   26.4   12.4    0.0    5.1   6.36   1.91    0.00    0.00   0.00   0.00   0.00   0.00   5.58   9.89
   15 116    40    39   25.0    0.0   0.00   5.01   29.9   13.8    0.0    5.0   6.36   1.88    0.00    0.00   0.00   0.00   0.00   0.00   6.35  11.19
   15 117    41    40   28.4    0.0   0.00   5.02   34.5   15.5    0.0    5.0   6.36   1.91    0.00    0.00   0.00   0.00   0.01   0.01   7.57  12.78
   15 118    42    41   30.1    0.0   0.00   5.05   37.0   16.5    0.0    5.0   6.36   1.93    0.00    0.00   0.00   0.00   0.00   0.00   8.21  13.63
   15 119    43    42   31.1    0.0   0.00   5.00   38.4   16.9    0.0    5.0   6.36   1.92    0.00    0.00   0.00   0.00   0.00   0.00   8.56  14.11
   15 120    44    43   33.1    0.0   0.00   4.95   41.4   18.0    0.0    4.9   6.36   1.91    0.00    0.00   0.00   0.00   0.00   0.00   9.36  15.15
   15 121    45    44   34.8    0.0   0.00   4.92   43.7   18.8    0.0    4.9   6.36   1.91    0.00    0.00   0.00   0.00   0.00   0.00   9.94  15.99
   15 122    46    45   36.5    0.0   0.00   4.81   46.2   19.6    0.0    4.8   6.36   1.87    0.00    0.00   0.00   0.00   0.00   0.00  10.61  16.84
   15 123    47    46   37.7    0.0   0.00   4.56   47.7   20.2    0.0    4.6   6.36   1.81    0.00    0.00   0.00   0.00   0.00   0.00  10.81  17.44
   15 124    48    47   39.5    0.0   0.00   4.33   50.1   21.1    0.0    4.4   6.36   1.71    0.00    0.00   0.00   0.05   0.10   0.10  11.32  18.35
   15 125    49    48   41.3    0.0   0.00   4.10   52.4   22.0    0.0    4.1   6.36   1.68    0.00    0.00   0.00   0.12   0.22   0.22  11.70  19.27
   15 126    50    49   42.0    0.0   0.00   3.97   53.4   22.3    0.0    4.0   6.36   1.59    0.00    0.00   0.00   0.19   0.35   0.35  11.84  19.65
   15 127    51    50   43.2    0.0   0.00   3.87   55.1   22.9    0.0    3.9   6.36   1.53    0.00    0.00   0.00   0.23   0.40   0.40  12.18  20.25
   15 128    52    51   44.5    0.0   0.00   3.76   56.9   23.6    0.0    3.8   6.36   1.47    0.00    0.00   0.00   0.25   0.43   0.43  12.60  20.91
   15 129    53    52   45.7    0.0   0.00   3.67   58.7   24.2    0.0    3.7   6.36   1.43    0.00    0.00   0.00   0.28   0.48   0.48  13.02  21.53
   15 130    54    53   46.8    0.0   0.00   3.59   60.3   24.7    0.0    3.6   6.36   1.40    0.00    0.00   0.00   0.30   0.51   0.51  13.39  22.08
   15 131    55    54   47.7    0.0   0.00   3.49   61.6   25.1    0.0    3.5   6.36   1.36    0.00    0.00   0.00   0.31   0.53   0.53  13.69  22.53
   15 132    56    55   48.5    0.0   0.00   3.36   62.7   25.5    0.0    3.4   6.36   1.29    0.00    0.00   0.00   0.33   0.55   0.55  13.93  22.91
   15 133    57    56   49.2    0.0   0.00   3.06   63.8   25.9    0.1    3.2   0.28   1.26    0.00    0.00   0.05   0.37   0.60   0.60  14.09  23.28
   15 134    58    57   50.0    0.0   0.00   2.88   64.8   26.2    0.1    3.0   0.30   1.24    0.00    0.00   0.23   0.49   0.74   0.74  14.21  23.63
   15 135    59    58   50.7    0.0   0.00   2.82   65.8   26.5    0.2    3.0   0.37   1.24    0.00    0.00   0.34   0.56   0.81   0.81  14.29  23.94
   15 136    60    59   51.3    0.0   0.00   2.66   66.6   26.8    0.3    2.8   0.36   1.21    0.00    0.00   0.36   0.58   0.82   0.82  14.35  24.23
   15 137    61    60   52.0    0.0   0.00   2.58   67.4   27.1    0.4    2.8   0.38   1.19    0.00    0.00   0.46   0.64   0.87   0.87  14.39  24.50
   15 138    62    61   52.6    0.0   0.00   2.47   68.2   27.3    0.5    2.7   0.38   1.16    0.00    0.00   0.50   0.66   0.89   0.89  14.43  24.76
   15 139    63    62   53.2    0.0   0.00   2.44   69.0   27.6    0.6    2.6   0.42   1.16    0.00    0.00   0.56   0.71   0.91   0.91  14.47  25.02
   15 140    64    63   53.8    0.0   0.00   2.42   69.8   27.8    0.8    2.6   0.47   1.16    0.00    0.00   0.57   0.71   0.92   0.92  14.50  25.27
   15 141    65    64   54.4    0.0   0.00   2.39   70.6   28.0    0.9    2.6   0.50   1.16    0.00    0.00   0.56   0.71   0.91   0.91  14.53  25.51
   15 142    66    65   55.0    0.0   0.00   2.34   71.4   28.3    1.0    2.6   0.50   1.14    0.00    0.00   0.57   0.71   0.92   0.92  14.56  25.75
   15 143    67    66   55.5    0.0   0.00   2.30   72.0   28.5    1.1    2.5   0.51   1.13    0.00    0.00   0.60   0.73   0.93   0.93  14.56  25.95
   15 144    68    67   56.0    0.0   0.00   2.27   72.6   28.6    1.2    2.5   0.52   1.13    0.00    0.00   0.61   0.74   0.93   0.93  14.55  26.13
   15 145    69    68   56.4    0.0   0.00   2.23   73.2   28.8    1.3    2.5   0.52   1.12    0.00    0.00   0.61   0.74   0.93   0.93  14.54  26.29
   15 146    70    69   56.8    0.0   0.00   2.20   73.7   28.9    1.5    2.4   0.53   1.11    0.00    0.00   0.63   0.75   0.94   0.94  14.52  26.45
   15 147    71    70   57.3    0.0   0.00   2.16   74.3   29.1    1.6    2.4   0.53   1.10    0.00    0.00   0.64   0.76   0.94   0.94  14.50  26.60
   15 148    72    71   57.7    0.0   0.00   2.11   74.8   29.2    1.7    2.4   0.51   1.08    0.00    0.00   0.65   0.76   0.94   0.94  14.48  26.75
   15 149    73    72   58.1    0.0   0.00   2.08   75.4   29.4    1.8    2.4   0.51   1.07    0.00    0.00   0.67   0.78   0.95   0.95  14.47  26.90
   15 150    74    73   58.6    0.0   0.00   2.05   76.0   29.5    2.0    2.3   0.52   1.07    0.00    0.00   0.67   0.78   0.95   0.95  14.47  27.06
   15 151    75    74   59.1    0.0   0.00   2.02   76.7   29.7    2.2    2.3   0.52   1.06    0.00    0.00   0.67   0.78   0.95   0.95  14.49  27.22
   15 152    76    75   63.5    0.0   0.00   2.13   82.7   31.0    3.8    2.4   0.87   1.15    0.00    0.00   0.66   0.78   0.95   0.95  15.86  28.66
   15 153    77    76   67.9    0.0   0.00   2.20   88.7   32.3    5.6    2.4   1.14   1.23    0.00    0.00   0.49   0.66   0.88   0.88  17.27  30.02
   15 154    78    77   72.3    0.0   0.00   2.23   94.7   33.4    7.6    2.5   1.34   1.29    0.00    0.00   0.33   0.56   0.80   0.80  18.69  31.29
   15 155    79    78   76.7    0.0   0.00   2.24  100.7   34.5    9.8    2.5   1.46   1.35    0.00    0.00   0.22   0.48   0.73   0.73  20.11  32.44
   15 156    80    79   79.6    0.0   0.00   2.20  104.7   35.1   11.4    2.4   1.46   1.37    0.00    0.00   0.13   0.42   0.66   0.66  21.02  33.13
   15 157    81    80   83.9    0.0   0.00   2.21  110.7   35.9   14.1    2.4   1.58   1.42    0.00    0.00   0.10   0.40   0.64   0.64  22.49  34.01
   15 158    82    81   88.2    0.0   0.00   2.20  116.7   36.1   17.7    2.4   1.61   1.49    0.00    0.00   0.00   0.30   0.51   0.51  24.02  34.38
   15 159    83    82   91.0    0.0   0.00   2.20  120.8   36.1   20.5    2.4   1.69   1.55    0.00    0.00   0.00   0.23   0.41   0.41  25.07  34.38
   15 160    84    83   93.5    0.0   0.00   2.22  124.4   36.1   23.0    2.4   1.76   1.60    0.00    0.00   0.00   0.16   0.29   0.29  25.88  34.38
   15 161    85    84   94.9    0.0   0.00   2.18  126.3   36.1   24.4    2.4   1.69   1.60    0.00    0.00   0.00   0.05   0.10   0.10  26.12  34.38
   15 162    86    85   96.1    0.0   0.00   2.12  127.9   36.1   25.6    2.4   1.57   1.60    0.00    0.00   0.00   0.00   0.00   0.00  26.24  34.38
   15 163    87    86   97.3    0.0   0.00   2.04  129.4   36.1   26.7    2.4   1.44   1.58    0.00    0.00   0.00   0.00   0.00   0.00  26.30  34.38
   15 164    88    87   98.4    0.0   0.00   1.98  130.8   36.1   27.9    2.4   1.36   1.56    0.00    0.00   0.00   0.00   0.00   0.00  26.34  34.38
   15 165    89    88   99.6    0.0   0.00   1.92  132.4   36.1   29.1    2.4   1.28   1.54    0.00    0.00   0.00   0.00   0.00   0.00  26.39  34.38
   15 166    90    89  100.7    0.0   0.00   1.90  133.8   36.1   30.2    2.4   1.26   1.54    0.00    0.00   0.00   0.00   0.00   0.00  26.41  34.38
   15 167    91    90  102.1    0.0   0.00   1.85  135.5   36.1   31.6    2.4   1.21   1.53    0.00    0.00   0.00   0.00   0.00   0.00  26.49  34.38
   15 168    92    91  103.6    0.0   0.00   1.81  137.4   36.1   33.1    2.4   1.17   1.52    0.00    0.00   0.00   0.00   0.00   0.00  26.60  34.38
   15 169    93    92  104.9    0.0   0.00   1.79  139.0   36.1   34.4    2.4   1.17   1.52    0.00    0.00   0.00   0.00   0.00   0.00  26.67  34.38
   15 170    94    93  106.4    0.0   0.00   1.77  140.9   36.1   35.9    2.4   1.15   1.51    0.00    0.00   0.00   0.00   0.00   0.00  26.77  34.38
   15 171    95    94  107.8    0.0   0.00   1.74  142.6   36.1   37.3    2.4   1.14   1.51    0.00    0.00   0.00   0.00   0.00   0.00  26.86  34.38
   15 172    96    95  109.1    0.0   0.00   1.72  144.3   36.1   38.6    2.4   1.12   1.50    0.00    0.00   0.00   0.00   0.00   0.00  26.93  34.38
   15 173    97    96  110.4    0.0   0.00   1.70  145.9   36.1   39.9    2.4   1.11   1.51    0.00    0.00   0.00   0.00   0.00   0.00  27.00  34.38
   15 174    98    97  111.6    0.0   0.00   1.66  147.4   36.1   41.0    2.4   1.08   1.51    0.00    0.00   0.00   0.00   0.00   0.00  27.03  34.38
   15 175    99    98  112.7    0.0   0.00   1.63  148.8   36.1   42.1    2.4   1.05   1.50    0.00    0.00   0.00   0.00   0.00   0.00  27.07  34.38
   15 176   100    99  113.7    0.0   0.00   1.59  150.1   36.1   43.2    2.4   1.02   1.50    0.00    0.00   0.00   0.00   0.00   0.00  27.10  34.38
   15 177   101   100  114.6    0.0   0.00   1.55  151.4   36.1   44.1    2.4   0.99   1.49    0.00    0.00   0.00   0.00   0.00   0.00  27.13  34.38
   15 178   102   101  115.5    0.0   0.00   1.53  152.6   36.1   45.0    2.4   0.97   1.50    0.00    0.00   0.00   0.00   0.00   0.00  27.20  34.38
   15 179   103   102  116.3    0.0   0.00   1.50  153.7   36.1   45.7    2.4   0.94   1.50    0.00    0.00   0.00   0.00   0.00   0.00  27.29  34.38
   15 180   104   103  117.0    0.0   0.00   1.47  154.8   36.1   46.4    2.4   0.92   1.50    0.00    0.00   0.00   0.00   0.00   0.00  27.44  34.38
   15 181   105   104  117.5    0.0   0.00   1.44  155.9   36.1   47.0    2.4   0.89   1.51    0.00    0.00   0.00   0.00   0.00   0.00  27.69  34.38
   15 182   106   105  117.8    0.0   0.00   1.40  157.0   36.1   47.3    2.4   0.86   1.53    0.00    0.00   0.00   0.00   0.00   0.00  28.10  34.38
   15 183   107   106  117.8    0.0   0.00   1.37  158.0   36.1   47.3    2.4   0.83   1.56    0.00    0.00   0.00   0.00   0.00   0.00  28.85  34.38
   15 184   108   107  118.3   22.2   2.39   1.23  158.6   32.9   36.0    2.2   0.73   1.58    0.00    0.00   0.00   0.00   0.00   0.00  29.01  27.27
   15 185   109   108  118.5   28.4   2.14   1.19  159.1   29.6   35.8    2.0   0.77   1.60    0.00    0.00   0.00   0.00   0.00   0.00  29.45  24.74
   15 186   110   109  118.5   34.9   2.00   1.14  159.5   26.4   35.0    1.8   0.80   1.64    0.00    0.00   0.00   0.00   0.00   0.00  30.00  22.25
   15 187   111   110  118.5   40.1   1.85   1.11  159.9   24.0   34.1    1.6   0.82   1.67    0.00    0.00   0.00   0.00   0.00   0.00  30.47  20.38
   15 188   112   111  118.5   46.6   1.82   1.06  160.8   21.2   32.6    1.4   0.84   1.72    0.00    0.00   0.00   0.00   0.00   0.00  31.06  18.19
   15 189   113   112  118.5   50.5   1.75   1.02  160.8   19.6   31.5    1.3   0.84   1.71    0.00    0.00   0.00   0.00   0.00   0.00  30.75  16.95
   15 190   114   113  118.5   54.0   1.76   0.97  160.8   18.2   30.4    1.2   0.82   1.71    0.00    0.00   0.00   0.00   0.00   0.00  30.44  15.91
   15 191   115   114  118.5   57.8   1.74   0.92  160.8   16.8   29.2    1.1   0.78   1.71    0.00    0.00   0.00   0.00   0.00   0.00  30.14  14.77
   15 192   116   115  118.5   62.5   1.78   0.85  160.8   15.0   27.6    1.0   0.74   1.71    0.00    0.00   0.00   0.00   0.00   0.00  29.84  13.39
   15 193   117   116  118.5   67.2   1.81   0.77  160.8   13.3   26.0    0.9   0.70   1.71    0.00    0.00   0.00   0.00   0.00   0.00  29.54  12.00
   15 194   118   117  118.5   71.2   1.86   0.71  160.8   11.8   24.6    0.8   0.66   1.71    0.00    0.00   0.00   0.00   0.00   0.00  29.24  10.85
   15 195   119   118  119.7   75.8   1.91   0.66  161.8   10.6   23.3    0.7   0.63   1.71    0.00    0.00   0.00   0.00   0.00   0.00  28.83   9.87
   15 196   120   119  122.0   80.7   1.95   0.62  162.5    9.8   22.4    0.7   0.60   1.61    0.00    0.00   0.00   0.00   0.00   0.00  26.96   9.17
   15 197   121   120  123.9   84.6   1.96   0.59  163.0    9.2   21.5    0.6   0.58   1.53    0.00    0.00   0.00   0.00   0.00   0.00  25.27   8.65
   15 198   122   121  125.4   87.6   1.98   0.57  163.4    8.7   20.9    0.6   0.56   1.47    0.00    0.00   0.00   0.00   0.00   0.00  24.01   8.25
   15 199   123   122  126.4   90.0   1.99   0.55  163.5    8.3   20.2    0.6   0.54   1.42    0.00    0.00   0.00   0.00   0.00   0.00  23.06   7.93
   15 200   124   123  127.3   91.9   1.99   0.53  163.6    8.0   19.7    0.5   0.53   1.39    0.00    0.00   0.00   0.00   0.00   0.00  22.35   7.66
   15 201   125   124  127.9   93.6   1.98   0.52  163.6    7.7   19.1    0.5   0.51   1.37    0.00    0.00   0.00   0.00   0.00   0.00  21.79   7.41
   15 202   126   125  128.4   95.2   1.97   0.50  163.6    7.5   18.6    0.5   0.50   1.36    0.00    0.00   0.00   0.00   0.00   0.00  21.33   7.19
   15 203   127   126  128.9   96.6   1.97   0.49  163.7    7.3   18.1    0.5   0.49   1.34    0.00    0.00   0.00   0.00   0.00   0.00  20.94   6.98
   15 204   128   127  129.3   97.8   1.97   0.47  163.7    7.1   17.6    0.5   0.47   1.34    0.00    0.00   0.00   0.00   0.00   0.00  20.61   6.78
   15 205   129   128  129.6   99.1   1.97   0.46  163.7    6.9   17.1    0.5   0.46   1.33    0.00    0.00   0.00   0.00   0.00   0.00  20.31   6.58
   15 206   130   129  129.9  100.2   1.95   0.45  163.7    6.7   16.7    0.4   0.45   1.32    0.00    0.00   0.00   0.00   0.00   0.00  20.04   6.40
   15 207   131   130  130.2  101.2   1.94   0.44  163.7    6.5   16.3    0.4   0.43   1.32    0.00    0.00   0.00   0.00   0.00   0.00  19.79   6.24
   15 208   132   131  130.6  102.2   1.93   0.43  166.7    6.3   15.9    0.4   0.42   1.51    0.00    0.00   0.00   0.00   0.00   0.00  22.45   6.09
   15 209   133   132  131.8  104.2   1.93   0.42  167.7    6.2   15.6    0.4   0.42   1.51    0.00    0.00   0.00   0.00   0.00   0.00  22.19   5.93
   15 210   134   133  133.1  106.1   1.94   0.41  167.9    6.0   15.2    0.4   0.41   1.45    0.00    0.00   0.00   0.00   0.00   0.00  21.13   5.79
   15 211   135   134  134.1  107.7   1.94   0.40  167.9    5.9   14.8    0.4   0.40   1.40    0.00    0.00   0.00   0.00   0.00   0.00  20.18   5.66
   15 212   136   135  134.8  109.0   1.93   0.39  167.9    5.8   14.4    0.4   0.39   1.37    0.00    0.00   0.00   0.00   0.00   0.00  19.50   5.53
   15 213   137   136  135.3  110.2   1.94   0.38  167.9    5.6   14.1    0.4   0.38   1.35    0.00    0.00   0.00   0.00   0.00   0.00  18.98   5.39
   15 214   138   137  135.7  111.3   1.94   0.37  167.9    5.5   13.7    0.4   0.37   1.33    0.00    0.00   0.00   0.00   0.00   0.00  18.58   5.25
   15 215   139   138  136.0  112.3   1.93   0.36  167.9    5.3   13.3    0.4   0.36   1.32    0.00    0.00   0.00   0.04   0.08   0.08  18.25   5.11
   15 216   140   139  136.3  113.3   1.93   0.35  167.9    5.2   12.9    0.3   0.35   1.31    0.00    0.00   0.00   0.08   0.15   0.15  17.98   4.96
   15 217   141   140  136.6  114.2   1.94   0.34  167.9    5.0   12.5    0.3   0.34   1.31    0.00    0.00   0.00   0.13   0.24   0.24  17.73   4.81
   15 218   142   141  136.8  115.2   1.94   0.33  167.9    4.8   12.1    0.3   0.33   1.31    0.00    0.00   0.00   0.17   0.31   0.31  17.50   4.65
   15 219   143   142  136.8  115.8   1.95   0.32  167.9    4.7   11.8    0.3   0.32   1.32    0.00    0.00   0.00   0.21   0.37   0.37  17.47   4.53
   15 220   144   143  136.9  115.8   1.95   0.32  167.9    4.7   11.8    0.3   0.32   1.33    0.00    0.00   0.00   0.20   0.35   0.35  17.44   4.53
   15 221   145   144  136.9  115.8   1.95   0.32  167.9    4.7   11.8    0.3   0.32   1.34    0.00    0.00   0.00   0.04   0.09   0.09  17.43   4.53
   15 222   146   145  136.9  115.8   1.95   0.32  167.9    4.7   11.8    0.3   0.32   1.35    0.00    0.00   0.00   0.00   0.00   0.00  17.42   4.53
   15 223   147   146  136.9  115.8   1.95   0.32  167.9    4.7   11.8    0.3   0.32   1.35    0.00    0.00   0.00   0.00   0.00   0.00  17.24   4.53
   15 224   148   147  136.9  115.8   1.95   0.32  167.9    4.7   11.8    0.3   0.32   1.35    0.00    0.00   0.00   0.00   0.00   0.00  17.24   4.53
   15 225   149   148  136.9  115.8   1.95   0.32  167.9    4.7   11.8    0.3   0.32   1.35    0.00    0.00   0.00   0.00   0.00   0.00  17.24   4.53
   15 226   150   149  136.9  115.8   1.95   0.32  167.9    4.7   11.8    0.3   0.32   1.35    0.00    0.00   0.00   0.00   0.00   0.00  17.24   4.53
   15 227   151   150  136.9  115.8   1.95   0.32  167.9    4.7   11.8    0.3   0.32   1.35    0.00    0.00   0.00   0.00   0.00   0.00  17.24   4.53
   15 228   152   151  136.9  115.8   1.95   0.32  167.9    4.7   11.8    0.3   0.32   1.35    0.00    0.00   0.00   0.00   0.00   0.00  17.24   4.53
   15 229   153   152  136.9  115.8   1.95   0.32  167.9    4.7   11.8    0.3   0.32   1.35    0.00    0.00   0.00   0.00   0.00   0.00  17.24   4.53
   15 230   154   153  136.9  115.8   1.95   0.32  167.9    4.7   11.8    0.3   0.32   1.35    0.00    0.00   0.00   0.00   0.00   0.00  17.24   4.53
   15 231   155   154  136.9  115.8   1.95   0.32  167.9    4.7   11.8    0.3   0.32   1.35    0.00    0.00   0.00   0.00   0.00   0.00  17.24   4.53
   15 232   156   155  136.9  115.8   1.95   0.32  167.9    4.7   11.8    0.3   0.32   1.35    0.00    0.00   0.00   0.00   0.00   0.00  17.24   4.53
   15 233   157   156  136.9  115.8   1.95   0.32  167.9    4.7   11.8    0.3   0.32   1.35    0.00    0.00   0.00   0.00   0.00   0.00  17.24   4.53
   15 234   158   157  136.9  115.8   1.95   0.32  167.9    4.7   11.8    0.3   0.32   1.35    0.00    0.00   0.00   0.00   0.00   0.00  17.24   4.53
   15 235   159   158  136.9  115.8   1.95   0.32  167.9    4.7   11.8    0.3   0.32   1.35    0.00    0.00   0.00   0.00   0.00   0.00  17.24   4.53
   15 236   160   159  136.9  115.8   1.95   0.32  167.9    4.7   11.8    0.3   0.32   1.35    0.00    0.00   0.00   0.00   0.00   0.00  17.24   4.53
   15 237   161   160  136.9  115.8   1.95   0.32  167.9    4.7   11.8    0.3   0.32   1.35    0.00    0.00   0.00   0.00   0.00   0.00  17.24   4.53

*DSSAT Cropping System Model Ver. 4.8.5.000 -release  MAR 01, 2026 09:34:20

*RUN   2        : 2                         WHAPS048 TUDU1501    2
 MODEL          : WHAPS048 - Wheat
 EXPERIMENT     : TUDU1501 WH
 DATA PATH      :
 TREATMENT  2   : 2                         WHAPS048
  
@YEAR DOY   DAS   DAP   CNAD   GNAD   GN%D   VN%D   NUPC   LNAD   SNAD   LN%D   SN%D   RN%D   SNN0C   SNN1C NFact1 NFact2 NFact3 NFact4  RootN lfshthN
   15 077     1     0    0.0    0.0   0.00   0.00    0.0    0.0    0.0    0.0   0.00   0.00    0.00    0.00   0.00   0.00   0.00   0.00   0.00   0.00
   15 078     2     1    0.0    0.0   0.00   0.00    0.0    0.0    0.0    0.0   0.00   0.00    0.00    0.00   0.00   0.00   0.00   0.00   0.00   0.00
   15 079     3     2    0.0    0.0   0.00   0.00    0.0    0.0    0.0    0.0   0.00   0.00    0.00    0.00   0.00   0.00   0.00   0.00   0.00   0.00
   15 080     4     3    0.0    0.0   0.00   0.00    0.0    0.0    0.0    0.0   0.00   0.00    0.00    0.00   0.00   0.00   0.00   0.00   0.00   0.00
   15 081     5     4    0.0    0.0   0.00   0.00    0.0    0.0    0.0    0.0   0.00   0.00    0.00    0.00   0.00   0.00   0.00   0.00   0.00   0.00
   15 082     6     5    0.0    0.0   0.00   0.00    0.0    0.0    0.0    0.0   0.00   0.00    0.00    0.00   0.00   0.00   0.00   0.00   0.00   0.00
   15 083     7     6    0.0    0.0   0.00   0.00    0.0    0.0    0.0    0.0   0.00   0.00    0.00    0.00   0.00   0.00   0.00   0.00   0.00   0.00
   15 084     8     7    0.0    0.0   0.00   0.00    0.0    0.0    0.0    0.0   0.00   0.00    0.00    0.00   0.00   0.00   0.00   0.00   0.00   0.00
   15 085     9     8    0.0    0.0   0.00   0.00    0.0    0.0    0.0    0.0   0.00   0.00    0.00    0.00   0.00   0.00   0.00   0.00   0.00   0.00
   15 086    10     9    0.0    0.0   0.00   0.00    0.0    0.0    0.0    0.0   0.00   0.00    0.00    0.00   0.00   0.00   0.00   0.00   0.00   0.00
   15 087    11    10    0.0    0.0   0.00   0.00    0.0    0.0    0.0    0.0   0.00   0.00    0.00    0.00   0.00   0.00   0.00   0.00   0.00   0.00
   15 088    12    11    1.0    0.0   0.00   8.24    0.2    0.6    0.0    5.1   6.36   4.42    0.00    0.00   0.00   0.00   0.00   0.00   1.07   0.41
   15 089    13    12    1.2    0.0   0.00   7.89    0.3    0.7    0.0    5.5   6.36   4.32    0.00    0.00   0.00   0.00   0.00   0.00   1.06   0.41
   15 090    14    13    1.3    0.0   0.00   6.89    0.4    0.8    0.0    5.1   6.36   4.21    0.00    0.00   0.00   0.00   0.00   0.00   1.05   0.41
   15 091    15    14    1.5    0.0   0.00   7.36    0.6    1.0    0.0    6.0   6.36   4.06    0.00    0.00   0.00   0.00   0.00   0.00   1.04   0.41
   15 092    16    15    1.5    0.0   0.00   7.14    0.7    1.1    0.0    6.0   6.36   3.98    0.00    0.00   0.00   0.00   0.00   0.00   1.03   0.41
   15 093    17    16    1.5    0.0   0.00   6.40    0.7    1.1    0.0    5.7   6.36   3.79    0.00    0.00   0.00   0.00   0.00   0.00   1.02   0.41
   15 094    18    17    1.6    0.0   0.00   6.34    0.8    1.2    0.0    5.9   6.36   3.70    0.00    0.00   0.00   0.00   0.00   0.00   1.01   0.41
   15 095    19    18    1.7    0.0   0.00   6.22    0.8    1.2    0.0    6.0   6.36   3.53    0.00    0.00   0.00   0.00   0.00   0.00   1.00   0.41
   15 096    20    19    1.7    0.0   0.00   6.15    0.9    1.3    0.0    6.0   6.36   3.41    0.00    0.00   0.00   0.00   0.00   0.00   0.99   0.41
   15 097    21    20    1.8    0.0   0.00   5.81    0.9    1.3    0.0    5.8   6.36   3.19    0.00    0.00   0.00   0.00   0.00   0.00   0.98   0.41
   15 098    22    21    1.8    0.0   0.00   4.93    1.0    1.4    0.0    5.1   6.36   2.96    0.00    0.00   0.00   0.00   0.00   0.00   0.97   0.44
   15 099    23    22    2.3    0.0   0.00   4.78    1.4    1.6    0.0    4.9   6.36   2.69    0.00    0.00   0.00   0.31   0.53   0.53   0.96   0.60
   15 100    24    23    2.8    0.0   0.00   4.76    2.0    2.0    0.0    4.9   6.36   2.40    0.00    0.00   0.02   0.34   0.57   0.57   0.95   0.83
   15 101    25    24    3.6    0.0   0.00   4.87    2.7    2.4    0.0    4.9   6.36   2.17    0.00    0.00   0.00   0.34   0.56   0.56   0.94   1.12
   15 102    26    25    4.3    0.0   0.00   4.79    3.5    2.9    0.0    4.8   6.36   1.94    0.00    0.00   0.00   0.29   0.50   0.50   0.93   1.38
   15 103    27    26    5.1    0.0   0.00   4.70    4.3    3.3    0.0    4.7   6.36   1.81    0.00    0.00   0.00   0.30   0.51   0.51   0.98   1.72
   15 104    28    27    5.5    0.0   0.00   4.24    4.8    3.6    0.0    4.4   6.36   1.60    0.00    0.00   0.00   0.31   0.53   0.53   1.02   1.91
   15 105    29    28    5.8    0.0   0.00   3.82    5.1    3.7    0.0    4.0   6.36   1.37    0.00    0.00   0.16   0.44   0.68   0.68   1.06   2.07
   15 106    30    29    6.2    0.0   0.00   3.60    5.5    4.0    0.0    3.8   6.36   1.32    0.00    0.00   0.33   0.55   0.80   0.80   1.11   2.25
   15 107    31    30    9.7    0.0   0.00   5.21    9.5    5.8    0.0    5.2   6.36   1.83    0.00    0.00   0.41   0.61   0.85   0.85   1.62   3.84
   15 108    32    31   11.1    0.0   0.00   5.61   11.2    6.6    0.0    5.6   6.36   2.00    0.00    0.00   0.00   0.09   0.18   0.18   1.98   4.47
   15 109    33    32   12.0    0.0   0.00   5.55   12.5    7.1    0.0    5.5   6.36   1.99    0.00    0.00   0.00   0.00   0.00   0.00   2.29   4.91
   15 110    34    33   13.3    0.0   0.00   5.46   14.3    7.7    0.0    5.4   6.36   1.96    0.00    0.00   0.00   0.00   0.00   0.00   2.75   5.56
   15 111    35    34   15.2    0.0   0.00   5.36   16.9    8.7    0.0    5.3   6.36   1.93    0.00    0.00   0.00   0.00   0.00   0.00   3.40   6.46
   15 112    36    35   17.3    0.0   0.00   5.30   19.7    9.8    0.0    5.3   6.36   1.92    0.00    0.00   0.00   0.00   0.00   0.00   4.14   7.47
   15 113    37    36   18.3    0.0   0.00   5.33   21.1   10.3    0.0    5.3   6.36   1.94    0.00    0.00   0.00   0.00   0.00   0.00   4.45   7.91
   15 114    38    37   19.9    0.0   0.00   5.24   23.3   11.1    0.0    5.2   6.36   1.93    0.00    0.00   0.00   0.00   0.00   0.00   5.03   8.69
   15 115    39    38   22.0    0.0   0.00   5.16   26.0   12.3    0.0    5.1   6.36   1.91    0.00    0.00   0.00   0.00   0.00   0.00   5.53   9.74
   15 116    40    39   24.7    0.0   0.00   5.01   29.5   13.7    0.0    5.0   6.36   1.88    0.00    0.00   0.00   0.00   0.00   0.00   6.27  11.05
   15 117    41    40   28.0    0.0   0.00   5.02   34.1   15.4    0.0    5.0   6.36   1.91    0.00    0.00   0.00   0.00   0.01   0.01   7.49  12.63
   15 118    42    41   29.8    0.0   0.00   5.05   36.6   16.3    0.0    5.0   6.36   1.93    0.00    0.00   0.00   0.00   0.00   0.00   8.13  13.48
   15 119    43    42   30.8    0.0   0.00   5.00   38.0   16.8    0.0    5.0   6.36   1.92    0.00    0.00   0.00   0.00   0.00   0.00   8.48  13.96
   15 120    44    43   32.8    0.0   0.00   4.95   41.0   17.8    0.0    4.9   6.36   1.91    0.00    0.00   0.00   0.00   0.00   0.00   9.29  15.01
   15 121    45    44   34.5    0.0   0.00   4.91   43.2   18.6    0.0    4.9   6.36   1.91    0.00    0.00   0.00   0.00   0.00   0.00   9.84  15.82
   15 122    46    45   36.1    0.0   0.00   4.80   45.7   19.4    0.0    4.8   6.36   1.87    0.00    0.00   0.00   0.00   0.00   0.00  10.49  16.66
   15 123    47    46   37.3    0.0   0.00   4.56   47.2   20.0    0.0    4.6   6.36   1.81    0.00    0.00   0.00   0.00   0.00   0.00  10.70  17.27
   15 124    48    47   39.2    0.0   0.00   4.32   49.7   20.9    0.0    4.3   6.36   1.71    0.00    0.00   0.00   0.06   0.11   0.11  11.22  18.20
   15 125    49    48   41.0    0.0   0.00   4.10   52.0   21.8    0.0    4.1   6.36   1.68    0.00    0.00   0.00   0.12   0.22   0.22  11.61  19.14
   15 126    50    49   41.8    0.0   0.00   3.97   53.0   22.2    0.0    4.0   6.36   1.59    0.00    0.00   0.00   0.19   0.35   0.35  11.75  19.52
   15 127    51    50   43.0    0.0   0.00   3.87   54.7   22.8    0.0    3.9   6.36   1.54    0.00    0.00   0.00   0.23   0.40   0.40  12.10  20.14
   15 128    52    51   44.3    0.0   0.00   3.76   56.6   23.5    0.0    3.8   6.36   1.48    0.00    0.00   0.00   0.25   0.43   0.43  12.54  20.82
   15 129    53    52   45.6    0.0   0.00   3.67   58.4   24.1    0.0    3.7   6.36   1.44    0.00    0.00   0.00   0.27   0.47   0.47  12.96  21.45
   15 130    54    53   46.7    0.0   0.00   3.59   60.0   24.6    0.0    3.6   6.36   1.40    0.00    0.00   0.00   0.30   0.50   0.50  13.35  22.01
   15 131    55    54   47.6    0.0   0.00   3.50   61.4   25.1    0.0    3.5   6.36   1.36    0.00    0.00   0.00   0.31   0.53   0.53  13.66  22.47
   15 132    56    55   48.4    0.0   0.00   3.36   62.6   25.5    0.0    3.4   6.36   1.30    0.00    0.00   0.00   0.33   0.55   0.55  13.91  22.87
   15 133    57    56   49.2    0.0   0.00   3.07   63.7   25.8    0.1    3.2   0.28   1.27    0.00    0.00   0.05   0.37   0.60   0.60  14.08  23.25
   15 134    58    57   49.9    0.0   0.00   2.89   64.7   26.2    0.1    3.0   0.31   1.24    0.00    0.00   0.23   0.49   0.74   0.74  14.20  23.60
   15 135    59    58   50.6    0.0   0.00   2.82   65.7   26.5    0.2    3.0   0.38   1.24    0.00    0.00   0.34   0.56   0.81   0.81  14.29  23.92
   15 136    60    59   51.3    0.0   0.00   2.67   66.5   26.8    0.3    2.8   0.36   1.21    0.00    0.00   0.36   0.57   0.82   0.82  14.35  24.21
   15 137    61    60   51.9    0.0   0.00   2.58   67.4   27.0    0.4    2.8   0.39   1.19    0.00    0.00   0.45   0.64   0.87   0.87  14.39  24.48
   15 138    62    61   52.6    0.0   0.00   2.47   68.2   27.3    0.5    2.7   0.39   1.17    0.00    0.00   0.49   0.66   0.89   0.89  14.43  24.75
   15 139    63    62   53.2    0.0   0.00   2.44   69.0   27.6    0.6    2.6   0.43   1.16    0.00    0.00   0.56   0.70   0.91   0.91  14.47  25.01
   15 140    64    63   53.8    0.0   0.00   2.43   69.8   27.8    0.8    2.6   0.48   1.17    0.00    0.00   0.57   0.71   0.92   0.92  14.51  25.26
   15 141    65    64   54.4    0.0   0.00   2.40   70.6   28.0    0.9    2.6   0.51   1.16    0.00    0.00   0.56   0.71   0.91   0.91  14.54  25.51
   15 142    66    65   55.0    0.0   0.00   2.34   71.3   28.3    1.0    2.6   0.51   1.15    0.00    0.00   0.57   0.71   0.92   0.92  14.56  25.74
   15 143    67    66   55.5    0.0   0.00   2.30   72.0   28.5    1.1    2.5   0.52   1.14    0.00    0.00   0.60   0.73   0.93   0.93  14.57  25.95
   15 144    68    67   56.0    0.0   0.00   2.27   72.6   28.6    1.3    2.5   0.53   1.13    0.00    0.00   0.61   0.74   0.93   0.93  14.56  26.13
   15 145    69    68   56.4    0.0   0.00   2.23   73.2   28.8    1.4    2.5   0.53   1.12    0.00    0.00   0.61   0.74   0.93   0.93  14.54  26.29
   15 146    70    69   56.9    0.0   0.00   2.20   73.7   28.9    1.5    2.4   0.53   1.11    0.00    0.00   0.63   0.75   0.94   0.94  14.53  26.45
   15 147    71    70   57.3    0.0   0.00   2.17   74.3   29.1    1.6    2.4   0.53   1.10    0.00    0.00   0.64   0.76   0.94   0.94  14.51  26.60
   15 148    72    71   57.7    0.0   0.00   2.11   74.8   29.2    1.7    2.4   0.52   1.09    0.00    0.00   0.64   0.76   0.94   0.94  14.49  26.75
   15 149    73    72   58.1    0.0   0.00   2.08   75.4   29.4    1.9    2.4   0.52   1.07    0.00    0.00   0.67   0.78   0.95   0.95  14.48  26.91
   15 150    74    73   58.6    0.0   0.00   2.05   76.0   29.5    2.0    2.3   0.53   1.07    0.00    0.00   0.67   0.78   0.95   0.95  14.48  27.06
   15 151    75    74   59.1    0.0   0.00   2.02   76.7   29.7    2.2    2.3   0.53   1.06    0.00    0.00   0.67   0.78   0.95   0.95  14.50  27.23
   15 152    76    75   63.6    0.0   0.00   2.13   82.7   31.0    3.9    2.4   0.87   1.15    0.00    0.00   0.66   0.78   0.95   0.95  15.86  28.66
   15 153    77    76   68.0    0.0   0.00   2.20   88.7   32.3    5.7    2.4   1.15   1.23    0.00    0.00   0.49   0.66   0.88   0.88  17.26  30.03
   15 154    78    77   72.4    0.0   0.00   2.23   94.7   33.4    7.7    2.5   1.34   1.30    0.00    0.00   0.33   0.56   0.80   0.80  18.68  31.29
   15 155    79    78   76.8    0.0   0.00   2.24  100.7   34.5    9.8    2.5   1.46   1.35    0.00    0.00   0.22   0.48   0.73   0.73  20.11  32.44
   15 156    80    79   79.6    0.0   0.00   2.20  104.6   35.1   11.4    2.4   1.45   1.36    0.00    0.00   0.13   0.42   0.66   0.66  20.97  33.10
   15 157    81    80   83.9    0.0   0.00   2.21  110.6   35.9   14.0    2.4   1.57   1.42    0.00    0.00   0.11   0.40   0.65   0.65  22.43  33.98
   15 158    82    81   87.9    0.0   0.00   2.19  116.3   36.1   17.5    2.4   1.59   1.49    0.00    0.00   0.00   0.30   0.52   0.52  23.90  34.34
   15 159    83    82   90.9    0.0   0.00   2.20  120.7   36.1   20.5    2.4   1.68   1.55    0.00    0.00   0.00   0.24   0.42   0.42  25.01  34.34
   15 160    84    83   93.5    0.0   0.00   2.21  124.3   36.1   23.1    2.4   1.76   1.60    0.00    0.00   0.00   0.16   0.29   0.29  25.84  34.34
   15 161    85    84   94.9    0.0   0.00   2.18  126.3   36.1   24.5    2.4   1.70   1.60    0.00    0.00   0.00   0.05   0.10   0.10  26.11  34.34
   15 162    86    85   96.2    0.0   0.00   2.12  128.0   36.1   25.7    2.4   1.58   1.60    0.00    0.00   0.00   0.00   0.00   0.00  26.25  34.34
   15 163    87    86   97.4    0.0   0.00   2.04  129.5   36.1   26.9    2.4   1.45   1.58    0.00    0.00   0.00   0.00   0.00   0.00  26.30  34.34
   15 164    88    87   98.5    0.0   0.00   1.98  130.9   36.1   28.1    2.4   1.36   1.56    0.00    0.00   0.00   0.00   0.00   0.00  26.35  34.34
   15 165    89    88   99.8    0.0   0.00   1.92  132.5   36.1   29.3    2.4   1.29   1.55    0.00    0.00   0.00   0.00   0.00   0.00  26.40  34.34
   15 166    90    89  100.8    0.0   0.00   1.90  133.9   36.1   30.4    2.4   1.27   1.54    0.00    0.00   0.00   0.00   0.00   0.00  26.42  34.34
   15 167    91    90  102.2    0.0   0.00   1.85  135.6   36.1   31.8    2.4   1.22   1.53    0.00    0.00   0.00   0.00   0.00   0.00  26.51  34.34
   15 168    92    91  103.8    0.0   0.00   1.81  137.5   36.1   33.3    2.4   1.18   1.52    0.00    0.00   0.00   0.00   0.00   0.00  26.62  34.34
   15 169    93    92  105.1    0.0   0.00   1.80  139.2   36.1   34.6    2.4   1.18   1.52    0.00    0.00   0.00   0.00   0.00   0.00  26.69  34.34
   15 170    94    93  106.6    0.0   0.00   1.77  141.0   36.1   36.1    2.4   1.16   1.52    0.00    0.00   0.00   0.00   0.00   0.00  26.80  34.34
   15 171    95    94  108.0    0.0   0.00   1.75  142.8   36.1   37.5    2.4   1.15   1.51    0.00    0.00   0.00   0.00   0.00   0.00  26.88  34.34
   15 172    96    95  109.3    0.0   0.00   1.72  144.5   36.1   38.8    2.4   1.13   1.51    0.00    0.00   0.00   0.00   0.00   0.00  26.96  34.34
   15 173    97    96  110.6    0.0   0.00   1.70  146.1   36.1   40.1    2.4   1.11   1.51    0.00    0.00   0.00   0.00   0.00   0.00  27.02  34.34
   15 174    98    97  111.7    0.0   0.00   1.67  147.6   36.1   41.3    2.4   1.09   1.51    0.00    0.00   0.00   0.00   0.00   0.00  27.07  34.34
   15 175    99    98  112.9    0.0   0.00   1.63  149.0   36.1   42.4    2.4   1.06   1.51    0.00    0.00   0.00   0.00   0.00   0.00  27.10  34.34
   15 176   100    99  113.9    0.0   0.00   1.59  150.3   36.1   43.5    2.4   1.03   1.50    0.00    0.00   0.00   0.00   0.00   0.00  27.14  34.34
   15 177   101   100  114.9    0.0   0.00   1.56  151.6   36.1   44.4    2.4   0.99   1.50    0.00    0.00   0.00   0.00   0.00   0.00  27.17  34.34
   15 178   102   101  115.7    0.0   0.00   1.54  152.8   36.1   45.3    2.4   0.98   1.50    0.00    0.00   0.00   0.00   0.00   0.00  27.24  34.34
   15 179   103   102  116.5    0.0   0.00   1.50  154.0   36.1   46.0    2.4   0.95   1.50    0.00    0.00   0.00   0.00   0.00   0.00  27.34  34.34
   15 180   104   103  117.2    0.0   0.00   1.47  155.1   36.1   46.7    2.4   0.92   1.51    0.00    0.00   0.00   0.00   0.00   0.00  27.50  34.34
   15 181   105   104  117.7    0.0   0.00   1.44  156.2   36.1   47.3    2.4   0.90   1.52    0.00    0.00   0.00   0.00   0.00   0.00  27.76  34.34
   15 182   106   105  118.0    0.0   0.00   1.40  157.2   36.1   47.6    2.4   0.87   1.53    0.00    0.00   0.00   0.00   0.00   0.00  28.20  34.34
   15 183   107   106  118.0    0.0   0.00   1.37  158.3   36.1   47.6    2.4   0.83   1.57    0.00    0.00   0.00   0.00   0.00   0.00  28.99  34.34
   15 184   108   107  118.6   22.2   2.39   1.23  158.9   32.9   36.0    2.2   0.73   1.58    0.00    0.00   0.00   0.00   0.00   0.00  29.14  27.44
   15 185   109   108  118.8   28.4   2.14   1.19  159.4   29.6   35.8    2.0   0.77   1.61    0.00    0.00   0.00   0.00   0.00   0.00  29.57  24.90
   15 186   110   109  118.8   34.9   2.00   1.15  159.8   26.4   35.0    1.8   0.80   1.65    0.00    0.00   0.00   0.00   0.00   0.00  30.12  22.39
   15 187   111   110  118.8   40.2   1.85   1.11  160.2   24.0   34.1    1.6   0.82   1.68    0.00    0.00   0.00   0.00   0.00   0.00  30.59  20.51
   15 188   112   111  118.8   46.7   1.82   1.06  161.0   21.2   32.6    1.4   0.84   1.72    0.00    0.00   0.00   0.00   0.00   0.00  31.05  18.31
   15 189   113   112  118.8   50.6   1.75   1.02  161.0   19.6   31.5    1.3   0.84   1.71    0.00    0.00   0.00   0.00   0.00   0.00  30.73  17.06
   15 190   114   113  118.8   54.0   1.76   0.98  161.0   18.3   30.4    1.2   0.82   1.71    0.00    0.00   0.00   0.00   0.00   0.00  30.43  16.00
   15 191   115   114  118.8   57.9   1.74   0.92  161.0   16.8   29.2    1.1   0.79   1.71    0.00    0.00   0.00   0.00   0.00   0.00  30.12  14.86
   15 192   116   115  118.8   62.5   1.78   0.85  161.0   15.1   27.7    1.0   0.74   1.71    0.00    0.00   0.00   0.00   0.00   0.00  29.82  13.47
   15 193   117   116  118.8   67.3   1.81   0.78  161.0   13.3   26.1    0.9   0.70   1.71    0.00    0.00   0.00   0.00   0.00   0.00  29.52  12.07
   15 194   118   117  118.8   71.3   1.86   0.72  161.0   11.9   24.7    0.8   0.66   1.71    0.00    0.00   0.00   0.00   0.00   0.00  29.23  10.90
   15 195   119   118  119.8   75.9   1.91   0.66  161.9   10.7   23.4    0.7   0.63   1.71    0.00    0.00   0.00   0.00   0.00   0.00  28.82   9.90
   15 196   120   119  122.1   80.7   1.95   0.62  162.6    9.8   22.4    0.7   0.60   1.61    0.00    0.00   0.00   0.00   0.00   0.00  26.99   9.19
   15 197   121   120  124.1   84.7   1.96   0.59  163.2    9.2   21.6    0.6   0.58   1.53    0.00    0.00   0.00   0.00   0.00   0.00  25.29   8.67
   15 198   122   121  125.5   87.7   1.98   0.57  163.6    8.7   20.9    0.6   0.56   1.47    0.00    0.00   0.00   0.00   0.00   0.00  24.03   8.26
   15 199   123   122  126.6   90.1   1.99   0.55  163.7    8.3   20.3    0.6   0.54   1.42    0.00    0.00   0.00   0.00   0.00   0.00  23.07   7.93
   15 200   124   123  127.4   92.1   1.99   0.53  163.7    8.0   19.7    0.5   0.53   1.39    0.00    0.00   0.00   0.00   0.00   0.00  22.35   7.66
   15 201   125   124  128.1   93.8   1.99   0.52  163.8    7.7   19.2    0.5   0.51   1.37    0.00    0.00   0.00   0.00   0.00   0.00  21.78   7.41
   15 202   126   125  128.6   95.3   1.98   0.50  163.8    7.5   18.6    0.5   0.50   1.36    0.00    0.00   0.00   0.00   0.00   0.00  21.32   7.19
   15 203   127   126  129.1   96.7   1.97   0.49  163.8    7.3   18.1    0.5   0.49   1.34    0.00    0.00   0.00   0.00   0.00   0.00  20.94   6.97
   15 204   128   127  129.5   98.0   1.98   0.47  163.8    7.1   17.6    0.5   0.47   1.34    0.00    0.00   0.00   0.00   0.00   0.00  20.60   6.77
   15 205   129   128  129.8   99.2   1.97   0.46  163.8    6.9   17.1    0.5   0.46   1.33    0.00    0.00   0.00   0.00   0.00   0.00  20.30   6.58
   15 206   130   129  130.1  100.4   1.96   0.45  163.8    6.7   16.7    0.4   0.45   1.33    0.00    0.00   0.00   0.00   0.00   0.00  20.03   6.40
   15 207   131   130  130.4  101.4   1.95   0.44  163.8    6.5   16.3    0.4   0.43   1.32    0.00    0.00   0.00   0.00   0.00   0.00  19.78   6.24
   15 208   132   131  130.7  102.4   1.93   0.43  166.7    6.3   16.0    0.4   0.42   1.51    0.00    0.00   0.00   0.00   0.00   0.00  22.37   6.08
   15 209   133   132  132.0  104.3   1.93   0.42  167.7    6.2   15.6    0.4   0.42   1.51    0.00    0.00   0.00   0.00   0.00   0.00  22.11   5.93
   15 210   134   133  133.2  106.2   1.94   0.41  167.9    6.0   15.2    0.4   0.41   1.45    0.00    0.00   0.00   0.00   0.00   0.00  21.07   5.79
   15 211   135   134  134.2  107.8   1.94   0.40  167.9    5.9   14.8    0.4   0.40   1.40    0.00    0.00   0.00   0.00   0.00   0.00  20.14   5.66
   15 212   136   135  134.9  109.1   1.94   0.39  167.9    5.7   14.4    0.4   0.39   1.37    0.00    0.00   0.00   0.00   0.00   0.00  19.47   5.53
   15 213   137   136  135.4  110.3   1.94   0.38  167.9    5.6   14.1    0.4   0.38   1.35    0.00    0.00   0.00   0.00   0.00   0.00  18.96   5.39
   15 214   138   137  135.8  111.4   1.94   0.37  167.9    5.5   13.7    0.4   0.37   1.33    0.00    0.00   0.00   0.00   0.00   0.00  18.56   5.25
   15 215   139   138  136.1  112.4   1.93   0.36  167.9    5.3   13.3    0.4   0.36   1.32    0.00    0.00   0.00   0.04   0.08   0.08  18.24   5.11
   15 216   140   139  136.4  113.4   1.93   0.35  167.9    5.2   12.9    0.3   0.35   1.31    0.00    0.00   0.00   0.08   0.15   0.15  17.96   4.96
   15 217   141   140  136.7  114.3   1.94   0.34  167.9    5.0   12.5    0.3   0.34   1.31    0.00    0.00   0.00   0.13   0.24   0.24  17.72   4.80
   15 218   142   141  136.9  115.3   1.94   0.33  167.9    4.8   12.1    0.3   0.33   1.31    0.00    0.00   0.00   0.17   0.31   0.31  17.49   4.65
   15 219   143   142  136.9  115.9   1.95   0.32  167.9    4.7   11.8    0.3   0.32   1.32    0.00    0.00   0.00   0.21   0.37   0.37  17.46   4.53
   15 220   144   143  136.9  115.9   1.95   0.32  167.9    4.7   11.8    0.3   0.32   1.33    0.00    0.00   0.00   0.20   0.35   0.35  17.43   4.53
   15 221   145   144  136.9  115.9   1.95   0.32  167.9    4.7   11.8    0.3   0.32   1.34    0.00    0.00   0.00   0.04   0.09   0.09  17.42   4.53
   15 222   146   145  136.9  115.9   1.95   0.32  167.9    4.7   11.8    0.3   0.32   1.35    0.00    0.00   0.00   0.00   0.00   0.00  17.41   4.53
   15 223   147   146  136.9  115.9   1.95   0.32  167.9    4.7   11.8    0.3   0.32   1.35    0.00    0.00   0.00   0.00   0.00   0.00  17.23   4.53
   15 224   148   147  136.9  115.9   1.95   0.32  167.9    4.7   11.8    0.3   0.32   1.35    0.00    0.00   0.00   0.00   0.00   0.00  17.23   4.53
   15 225   149   148  136.9  115.9   1.95   0.32  167.9    4.7   11.8    0.3   0.32   1.35    0.00    0.00   0.00   0.00   0.00   0.00  17.23   4.53
   15 226   150   149  136.9  115.9   1.95   0.32  167.9    4.7   11.8    0.3   0.32   1.35    0.00    0.00   0.00   0.00   0.00   0.00  17.23   4.53
   15 227   151   150  136.9  115.9   1.95   0.32  167.9    4.7   11.8    0.3   0.32   1.35    0.00    0.00   0.00   0.00   0.00   0.00  17.23   4.53
   15 228   152   151  136.9  115.9   1.95   0.32  167.9    4.7   11.8    0.3   0.32   1.35    0.00    0.00   0.00   0.00   0.00   0.00  17.23   4.53
   15 229   153   152  136.9  115.9   1.95   0.32  167.9    4.7   11.8    0.3   0.32   1.35    0.00    0.00   0.00   0.00   0.00   0.00  17.23   4.53
   15 230   154   153  136.9  115.9   1.95   0.32  167.9    4.7   11.8    0.3   0.32   1.35    0.00    0.00   0.00   0.00   0.00   0.00  17.23   4.53
   15 231   155   154  136.9  115.9   1.95   0.32  167.9    4.7   11.8    0.3   0.32   1.35    0.00    0.00   0.00   0.00   0.00   0.00  17.23   4.53
   15 232   156   155  136.9  115.9   1.95   0.32  167.9    4.7   11.8    0.3   0.32   1.35    0.00    0.00   0.00   0.00   0.00   0.00  17.23   4.53
   15 233   157   156  136.9  115.9   1.95   0.32  167.9    4.7   11.8    0.3   0.32   1.35    0.00    0.00   0.00   0.00   0.00   0.00  17.23   4.53
   15 234   158   157  136.9  115.9   1.95   0.32  167.9    4.7   11.8    0.3   0.32   1.35    0.00    0.00   0.00   0.00   0.00   0.00  17.23   4.53
   15 235   159   158  136.9  115.9   1.95   0.32  167.9    4.7   11.8    0.3   0.32   1.35    0.00    0.00   0.00   0.00   0.00   0.00  17.23   4.53
   15 236   160   159  136.9  115.9   1.95   0.32  167.9    4.7   11.8    0.3   0.32   1.35    0.00    0.00   0.00   0.00   0.00   0.00  17.23   4.53
   15 237   161   160  136.9  115.9   1.95   0.32  167.9    4.7   11.8    0.3   0.32   1.35    0.00    0.00   0.00   0.00   0.00   0.00  17.23   4.53

*DSSAT Cropping System Model Ver. 4.8.5.000 -release  MAR 01, 2026 09:34:20

*RUN   3        : 3                         WHAPS048 TUDU1501    3
 MODEL          : WHAPS048 - Wheat
 EXPERIMENT     : TUDU1501 WH
 DATA PATH      :
 TREATMENT  3   : 3                         WHAPS048
  
@YEAR DOY   DAS   DAP   CNAD   GNAD   GN%D   VN%D   NUPC   LNAD   SNAD   LN%D   SN%D   RN%D   SNN0C   SNN1C NFact1 NFact2 NFact3 NFact4  RootN lfshthN
   15 077     1     0    0.0    0.0   0.00   0.00    0.0    0.0    0.0    0.0   0.00   0.00    0.00    0.00   0.00   0.00   0.00   0.00   0.00   0.00
   15 078     2     1    0.0    0.0   0.00   0.00    0.0    0.0    0.0    0.0   0.00   0.00    0.00    0.00   0.00   0.00   0.00   0.00   0.00   0.00
   15 079     3     2    0.0    0.0   0.00   0.00    0.0    0.0    0.0    0.0   0.00   0.00    0.00    0.00   0.00   0.00   0.00   0.00   0.00   0.00
   15 080     4     3    0.0    0.0   0.00   0.00    0.0    0.0    0.0    0.0   0.00   0.00    0.00    0.00   0.00   0.00   0.00   0.00   0.00   0.00
   15 081     5     4    0.0    0.0   0.00   0.00    0.0    0.0    0.0    0.0   0.00   0.00    0.00    0.00   0.00   0.00   0.00   0.00   0.00   0.00
   15 082     6     5    0.0    0.0   0.00   0.00    0.0    0.0    0.0    0.0   0.00   0.00    0.00    0.00   0.00   0.00   0.00   0.00   0.00   0.00
   15 083     7     6    0.0    0.0   0.00   0.00    0.0    0.0    0.0    0.0   0.00   0.00    0.00    0.00   0.00   0.00   0.00   0.00   0.00   0.00
   15 084     8     7    0.0    0.0   0.00   0.00    0.0    0.0    0.0    0.0   0.00   0.00    0.00    0.00   0.00   0.00   0.00   0.00   0.00   0.00
   15 085     9     8    0.0    0.0   0.00   0.00    0.0    0.0    0.0    0.0   0.00   0.00    0.00    0.00   0.00   0.00   0.00   0.00   0.00   0.00
   15 086    10     9    0.0    0.0   0.00   0.00    0.0    0.0    0.0    0.0   0.00   0.00    0.00    0.00   0.00   0.00   0.00   0.00   0.00   0.00
   15 087    11    10    0.0    0.0   0.00   0.00    0.0    0.0    0.0    0.0   0.00   0.00    0.00    0.00   0.00   0.00   0.00   0.00   0.00   0.00
   15 088    12    11    1.0    0.0   0.00   8.24    0.2    0.6    0.0    5.1   6.36   4.42    0.00    0.00   0.00   0.00   0.00   0.00   1.07   0.41
   15 089    13    12    1.2    0.0   0.00   7.89    0.3    0.7    0.0    5.5   6.36   4.32    0.00    0.00   0.00   0.00   0.00   0.00   1.06   0.41
   15 090    14    13    1.3    0.0   0.00   6.89    0.4    0.8    0.0    5.1   6.36   4.21    0.00    0.00   0.00   0.00   0.00   0.00   1.05   0.41
   15 091    15    14    1.5    0.0   0.00   7.36    0.6    1.0    0.0    6.0   6.36   4.06    0.00    0.00   0.00   0.00   0.00   0.00   1.04   0.41
   15 092    16    15    1.5    0.0   0.00   7.14    0.7    1.1    0.0    6.0   6.36   3.98    0.00    0.00   0.00   0.00   0.00   0.00   1.03   0.41
   15 093    17    16    1.5    0.0   0.00   6.40    0.7    1.1    0.0    5.7   6.36   3.79    0.00    0.00   0.00   0.00   0.00   0.00   1.02   0.41
   15 094    18    17    1.6    0.0   0.00   6.34    0.8    1.2    0.0    5.9   6.36   3.70    0.00    0.00   0.00   0.00   0.00   0.00   1.01   0.41
   15 095    19    18    1.7    0.0   0.00   6.22    0.8    1.2    0.0    6.0   6.36   3.53    0.00    0.00   0.00   0.00   0.00   0.00   1.00   0.41
   15 096    20    19    1.7    0.0   0.00   6.15    0.9    1.3    0.0    6.0   6.36   3.41    0.00    0.00   0.00   0.00   0.00   0.00   0.99   0.41
   15 097    21    20    1.8    0.0   0.00   5.81    0.9    1.3    0.0    5.8   6.36   3.19    0.00    0.00   0.00   0.00   0.00   0.00   0.98   0.41
   15 098    22    21    1.8    0.0   0.00   4.93    1.0    1.4    0.0    5.1   6.36   2.96    0.00    0.00   0.00   0.00   0.00   0.00   0.97   0.44
   15 099    23    22    2.3    0.0   0.00   4.78    1.4    1.6    0.0    4.9   6.36   2.69    0.00    0.00   0.00   0.31   0.53   0.53   0.96   0.60
   15 100    24    23    2.8    0.0   0.00   4.76    2.0    2.0    0.0    4.9   6.36   2.40    0.00    0.00   0.02   0.34   0.57   0.57   0.95   0.83
   15 101    25    24    3.5    0.0   0.00   4.76    2.6    2.4    0.0    4.8   6.36   2.17    0.00    0.00   0.00   0.34   0.56   0.56   0.94   1.08
   15 102    26    25    4.0    0.0   0.00   4.43    3.1    2.7    0.0    4.5   6.36   1.94    0.00    0.00   0.00   0.32   0.54   0.54   0.93   1.26
   15 103    27    26    4.3    0.0   0.00   4.11    3.5    2.9    0.0    4.2   6.36   1.76    0.00    0.00   0.11   0.41   0.65   0.65   0.94   1.42
   15 104    28    27    4.6    0.0   0.00   3.82    3.8    3.1    0.0    4.0   6.36   1.57    0.00    0.00   0.24   0.49   0.74   0.74   0.97   1.56
   15 105    29    28    5.0    0.0   0.00   3.56    4.2    3.2    0.0    3.8   6.36   1.42    0.00    0.00   0.35   0.56   0.81   0.81   1.00   1.70
   15 106    30    29    5.3    0.0   0.00   3.41    4.5    3.4    0.0    3.6   6.36   1.37    0.00    0.00   0.45   0.63   0.86   0.86   1.04   1.86
   15 107    31    30    5.7    0.0   0.00   3.42    4.9    3.6    0.0    3.6   6.36   1.37    0.00    0.00   0.50   0.67   0.89   0.89   1.08   2.03
   15 108    32    31    6.2    0.0   0.00   3.61    5.5    3.9    0.0    3.7   6.36   1.38    0.00    0.00   0.49   0.66   0.89   0.89   1.15   2.27
   15 109    33    32    6.7    0.0   0.00   3.70    6.2    4.2    0.0    3.8   6.36   1.35    0.00    0.00   0.40   0.60   0.84   0.84   1.25   2.51
   15 110    34    33    7.3    0.0   0.00   3.69    6.8    4.5    0.0    3.8   6.36   1.28    0.00    0.00   0.34   0.56   0.80   0.80   1.34   2.74
   15 111    35    34    7.8    0.0   0.00   3.64    7.5    4.8    0.0    3.8   6.36   1.21    0.00    0.00   0.33   0.55   0.80   0.80   1.46   2.99
   15 112    36    35    8.3    0.0   0.00   3.57    8.2    5.1    0.0    3.7   6.36   1.16    0.00    0.00   0.34   0.56   0.80   0.80   1.59   3.24
   15 113    37    36    8.9    0.0   0.00   3.65    8.9    5.4    0.0    3.8   6.36   1.19    0.00    0.00   0.36   0.57   0.82   0.82   1.73   3.50
   15 114    38    37    9.4    0.0   0.00   3.60    9.6    5.6    0.0    3.7   6.36   1.16    0.00    0.00   0.31   0.54   0.79   0.79   1.87   3.75
   15 115    39    38   10.0    0.0   0.00   3.52   10.3    5.9    0.0    3.6   6.36   1.13    0.00    0.00   0.32   0.54   0.79   0.79   2.02   4.02
   15 116    40    39   10.6    0.0   0.00   3.38   11.1    6.2    0.0    3.5   6.36   1.08    0.00    0.00   0.34   0.56   0.80   0.80   2.19   4.30
   15 117    41    40   11.2    0.0   0.00   3.30   11.9    6.6    0.0    3.4   6.36   1.06    0.00    0.00   0.39   0.60   0.84   0.84   2.38   4.61
   15 118    42    41   11.9    0.0   0.00   3.37   12.9    6.9    0.0    3.5   6.36   1.10    0.00    0.00   0.42   0.62   0.85   0.85   2.59   4.95
   15 119    43    42   12.7    0.0   0.00   3.45   13.9    7.3    0.0    3.5   6.36   1.15    0.00    0.00   0.38   0.59   0.83   0.83   2.82   5.31
   15 120    44    43   13.4    0.0   0.00   3.43   14.9    7.7    0.0    3.5   6.36   1.15    0.00    0.00   0.32   0.55   0.80   0.80   3.05   5.67
   15 121    45    44   13.8    0.0   0.00   3.37   15.4    7.9    0.0    3.5   6.36   1.14    0.00    0.00   0.32   0.54   0.79   0.79   3.16   5.86
   15 122    46    45   14.2    0.0   0.00   3.26   15.9    8.1    0.0    3.3   6.36   1.09    0.00    0.00   0.34   0.56   0.81   0.81   3.25   6.03
   15 123    47    46   14.5    0.0   0.00   3.12   16.3    8.3    0.0    3.2   6.36   1.07    0.00    0.00   0.38   0.59   0.83   0.83   3.31   6.17
   15 124    48    47   14.9    0.0   0.00   2.99   16.9    8.5    0.0    3.1   6.36   1.03    0.00    0.00   0.44   0.63   0.86   0.86   3.43   6.38
   15 125    49    48   15.4    0.0   0.00   2.89   17.5    8.8    0.0    3.0   6.36   1.03    0.00    0.00   0.50   0.67   0.89   0.89   3.54   6.62
   15 126    50    49   15.6    0.0   0.00   2.83   17.8    8.9    0.0    2.9   6.36   1.00    0.00    0.00   0.55   0.70   0.91   0.91   3.58   6.72
   15 127    51    50   16.0    0.0   0.00   2.79   18.3    9.1    0.0    2.9   6.36   0.98    0.00    0.00   0.57   0.71   0.92   0.92   3.67   6.90
   15 128    52    51   16.4    0.0   0.00   2.74   19.0    9.3    0.0    2.8   6.36   0.95    0.00    0.00   0.58   0.72   0.92   0.92   3.80   7.12
   15 129    53    52   16.9    0.0   0.00   2.71   19.6    9.5    0.0    2.8   6.36   0.94    0.00    0.00   0.59   0.73   0.92   0.92   3.93   7.34
   15 130    54    53   17.4    0.0   0.00   2.69   20.2    9.8    0.0    2.8   6.36   0.94    0.00    0.00   0.59   0.73   0.93   0.93   4.08   7.57
   15 131    55    54   17.9    0.0   0.00   2.67   20.9   10.0    0.0    2.8   6.36   0.93    0.00    0.00   0.59   0.73   0.92   0.92   4.23   7.81
   15 132    56    55   18.3    0.0   0.00   2.61   21.6   10.3    0.0    2.7   6.36   0.91    0.00    0.00   0.58   0.72   0.92   0.92   4.39   8.05
   15 133    57    56   18.9    0.0   0.00   2.53   22.3   10.5    0.0    2.6   0.69   0.92    0.00    0.00   0.60   0.73   0.93   0.93   4.53   8.30
   15 134    58    57   19.4    0.0   0.00   2.48   23.0   10.8    0.1    2.6   0.60   0.93    0.00    0.00   0.63   0.75   0.94   0.94   4.67   8.55
   15 135    59    58   19.9    0.0   0.00   2.48   23.8   11.0    0.1    2.6   0.66   0.95    0.00    0.00   0.65   0.77   0.95   0.95   4.81   8.79
   15 136    60    59   20.4    0.0   0.00   2.40   24.4   11.2    0.2    2.6   0.60   0.95    0.00    0.00   0.63   0.75   0.94   0.94   4.92   9.01
   15 137    61    60   20.9    0.0   0.00   2.36   25.1   11.5    0.2    2.5   0.63   0.95    0.00    0.00   0.67   0.78   0.95   0.95   5.04   9.24
   15 138    62    61   21.4    0.0   0.00   2.30   25.8   11.7    0.3    2.5   0.62   0.95    0.00    0.00   0.67   0.78   0.95   0.95   5.15   9.46
   15 139    63    62   21.9    0.0   0.00   2.29   26.4   11.9    0.4    2.5   0.67   0.96    0.00    0.00   0.70   0.80   0.96   0.96   5.26   9.67
   15 140    64    63   22.4    0.0   0.00   2.29   27.0   12.1    0.4    2.5   0.73   0.98    0.00    0.00   0.70   0.80   0.96   0.96   5.35   9.86
   15 141    65    64   22.7    0.0   0.00   2.27   27.5   12.2    0.5    2.5   0.74   0.98    0.00    0.00   0.68   0.78   0.95   0.95   5.41  10.01
   15 142    66    65   23.1    0.0   0.00   2.22   28.0   12.4    0.6    2.4   0.72   0.98    0.00    0.00   0.68   0.79   0.95   0.95   5.48  10.18
   15 143    67    66   23.5    0.0   0.00   2.19   28.5   12.5    0.6    2.4   0.72   0.98    0.00    0.00   0.70   0.80   0.96   0.96   5.55  10.33
   15 144    68    67   23.9    0.0   0.00   2.17   29.0   12.7    0.7    2.4   0.73   0.98    0.00    0.00   0.71   0.81   0.96   0.96   5.61  10.48
   15 145    69    68   24.2    0.0   0.00   2.14   29.4   12.8    0.8    2.4   0.73   0.98    0.00    0.00   0.70   0.80   0.96   0.96   5.67  10.62
   15 146    70    69   24.6    0.0   0.00   2.12   30.0   13.0    0.9    2.4   0.74   0.98    0.00    0.00   0.71   0.81   0.96   0.96   5.74  10.77
   15 147    71    70   25.0    0.0   0.00   2.10   30.5   13.1    1.0    2.3   0.75   0.98    0.00    0.00   0.71   0.81   0.96   0.96   5.81  10.92
   15 148    72    71   25.4    0.0   0.00   2.05   31.0   13.3    1.1    2.3   0.74   0.98    0.00    0.00   0.71   0.81   0.96   0.96   5.88  11.07
   15 149    73    72   25.8    0.0   0.00   2.03   31.6   13.4    1.2    2.3   0.74   0.97    0.00    0.00   0.73   0.82   0.97   0.97   5.95  11.22
   15 150    74    73   26.3    0.0   0.00   2.01   32.2   13.5    1.3    2.3   0.76   0.98    0.00    0.00   0.73   0.82   0.97   0.97   6.04  11.38
   15 151    75    74   26.7    0.0   0.00   1.98   32.8   13.7    1.5    2.3   0.77   0.98    0.00    0.00   0.72   0.81   0.96   0.96   6.13  11.54
   15 152    76    75   27.2    0.0   0.00   1.96   33.4   13.8    1.6    2.2   0.78   0.98    0.00    0.00   0.71   0.81   0.96   0.96   6.23  11.69
   15 153    77    76   27.6    0.0   0.00   1.94   34.0   14.0    1.8    2.2   0.78   0.98    0.00    0.00   0.69   0.80   0.96   0.96   6.34  11.85
   15 154    78    77   28.1    0.0   0.00   1.91   34.7   14.1    2.0    2.2   0.79   0.98    0.00    0.00   0.68   0.78   0.95   0.95   6.46  12.00
   15 155    79    78   28.7    0.0   0.00   1.88   35.4   14.3    2.3    2.2   0.79   0.98    0.00    0.00   0.67   0.78   0.95   0.95   6.60  12.16
   15 156    80    79   29.2    0.0   0.00   1.85   36.2   14.4    2.5    2.2   0.81   0.99    0.00    0.00   0.65   0.77   0.95   0.95   6.76  12.31
   15 157    81    80   29.8    0.0   0.00   1.83   37.1   14.5    2.8    2.2   0.83   1.00    0.00    0.00   0.63   0.75   0.94   0.94   6.94  12.47
   15 158    82    81   30.4    0.0   0.00   1.81   38.0   14.6    3.2    2.2   0.81   1.01    0.00    0.00   0.57   0.71   0.92   0.92   7.14  12.59
   15 159    83    82   31.1    0.0   0.00   1.81   39.0   14.7    3.7    2.2   0.85   1.04    0.00    0.00   0.53   0.69   0.90   0.90   7.39  12.71
   15 160    84    83   31.8    0.0   0.00   1.81   40.0   14.8    4.2    2.2   0.90   1.08    0.00    0.00   0.47   0.64   0.87   0.87   7.68  12.81
   15 161    85    84   32.5    0.0   0.00   1.80   41.1   14.8    4.8    2.2   0.92   1.12    0.00    0.00   0.37   0.58   0.82   0.82   8.00  12.89
   15 162    86    85   33.2    0.0   0.00   1.76   42.3   14.8    5.5    2.2   0.91   1.14    0.00    0.00   0.28   0.52   0.77   0.77   8.33  12.92
   15 163    87    86   34.0    0.0   0.00   1.70   43.4   14.8    6.3    2.2   0.88   1.15    0.00    0.00   0.25   0.50   0.75   0.75   8.63  12.92
   15 164    88    87   34.8    0.0   0.00   1.66   44.6   14.8    7.1    2.2   0.87   1.16    0.00    0.00   0.26   0.50   0.75   0.75   8.93  12.92
   15 165    89    88   35.7    0.0   0.00   1.62   45.9   14.8    8.0    2.2   0.86   1.17    0.00    0.00   0.22   0.48   0.73   0.73   9.23  12.92
   15 166    90    89   36.4    0.0   0.00   1.61   47.0   14.8    8.7    2.2   0.89   1.20    0.00    0.00   0.22   0.48   0.73   0.73   9.49  12.92
   15 167    91    90   37.4    0.0   0.00   1.58   48.4   14.8    9.7    2.2   0.89   1.21    0.00    0.00   0.14   0.43   0.67   0.67   9.82  12.92
   15 168    92    91   38.5    0.0   0.00   1.55   50.0   14.8   10.8    2.2   0.89   1.22    0.00    0.00   0.12   0.41   0.66   0.66  10.17  12.92
   15 169    93    92   39.5    0.0   0.00   1.54   51.4   14.8   11.8    2.2   0.93   1.25    0.00    0.00   0.11   0.41   0.65   0.65  10.47  12.92
   15 170    94    93   40.6    0.0   0.00   1.52   52.9   14.8   12.9    2.2   0.93   1.26    0.00    0.00   0.01   0.34   0.57   0.57  10.79  12.92
   15 171    95    94   41.7    0.0   0.00   1.51   54.4   14.8   14.0    2.2   0.95   1.28    0.00    0.00   0.00   0.31   0.53   0.53  11.10  12.92
   15 172    96    95   42.7    0.0   0.00   1.50   55.9   14.8   15.0    2.2   0.96   1.30    0.00    0.00   0.00   0.27   0.47   0.47  11.39  12.92
   15 173    97    96   43.8    0.0   0.00   1.48   57.3   14.8   16.1    2.2   0.96   1.32    0.00    0.00   0.00   0.20   0.35   0.35  11.68  12.92
   15 174    98    97   44.8    0.0   0.00   1.46   58.7   14.8   17.1    2.2   0.96   1.34    0.00    0.00   0.00   0.11   0.21   0.21  11.93  12.92
   15 175    99    98   45.8    0.0   0.00   1.43   60.1   14.8   18.1    2.2   0.94   1.36    0.00    0.00   0.00   0.00   0.00   0.00  12.16  12.92
   15 176   100    99   46.7    0.0   0.00   1.39   61.3   14.8   19.0    2.2   0.92   1.37    0.00    0.00   0.00   0.00   0.00   0.00  12.36  12.92
   15 177   101   100   47.6    0.0   0.00   1.36   62.5   14.8   19.9    2.2   0.90   1.38    0.00    0.00   0.00   0.00   0.00   0.00  12.56  12.92
   15 178   102   101   48.4    0.0   0.00   1.35   63.6   14.8   20.7    2.2   0.90   1.40    0.00    0.00   0.00   0.00   0.00   0.00  12.76  12.92
   15 179   103   102   49.1    0.0   0.00   1.32   64.7   14.8   21.4    2.2   0.88   1.42    0.00    0.00   0.00   0.00   0.00   0.00  12.98  12.92
   15 180   104   103   49.8    0.0   0.00   1.29   65.7   14.8   22.1    2.2   0.86   1.43    0.00    0.00   0.00   0.00   0.00   0.00  13.22  12.92
   15 181   105   104   50.4    0.0   0.00   1.27   66.8   14.8   22.7    2.2   0.84   1.46    0.00    0.00   0.00   0.00   0.00   0.00  13.52  12.92
   15 182   106   105   50.9    0.0   0.00   1.24   67.8   14.8   23.2    2.2   0.82   1.49    0.00    0.00   0.00   0.00   0.00   0.00  13.89  12.92
   15 183   107   106   51.1    0.0   0.00   1.21   68.5   14.8   23.4    2.2   0.79   1.54    0.00    0.00   0.00   0.00   0.00   0.00  14.45  12.92
   15 184   108   107   51.6   11.5   2.39   1.04   69.3   12.8   18.8    1.9   0.74   1.57    0.00    0.00   0.00   0.00   0.00   0.00  14.78   8.44
   15 185   109   108   51.8   14.7   2.14   1.00   69.9   10.9   18.7    1.6   0.77   1.63    0.00    0.00   0.00   0.00   0.00   0.00  15.36   7.46
   15 186   110   109   51.8   18.1   2.00   0.94   70.5    9.2   18.0    1.4   0.78   1.71    0.00    0.00   0.00   0.00   0.00   0.00  16.10   6.54
   15 187   111   110   51.8   20.8   1.85   0.89   70.7    7.9   17.2    1.2   0.79   1.72    0.00    0.00   0.00   0.00   0.00   0.00  16.13   5.88
   15 188   112   111   52.0   24.2   1.82   0.83   71.0    6.6   16.0    1.0   0.78   1.72    0.00    0.00   0.00   0.00   0.00   0.00  16.06   5.18
   15 189   113   112   52.0   26.2   1.75   0.79   71.0    5.9   15.1    0.9   0.76   1.71    0.00    0.00   0.00   0.00   0.00   0.00  15.91   4.79
   15 190   114   113   52.0   28.0   1.70   0.75   71.0    5.4   14.2    0.8   0.74   1.71    0.00    0.00   0.00   0.00   0.00   0.00  15.80   4.47
   15 191   115   114   52.4   30.0   1.66   0.70   71.5    4.9   13.3    0.7   0.70   1.71    0.00    0.00   0.00   0.00   0.00   0.00  15.69   4.21
   15 192   116   115   53.6   32.4   1.64   0.68   72.7    4.6   12.7    0.7   0.69   1.71    0.00    0.00   0.00   0.00   0.00   0.00  15.56   4.02
   15 193   117   116   55.0   34.8   1.63   0.66   74.1    4.4   12.0    0.7   0.67   1.71    0.00    0.00   0.00   0.00   0.00   0.00  15.41   3.87
   15 194   118   117   56.2   36.8   1.68   0.63   75.3    4.2   11.4    0.6   0.64   1.71    0.00    0.00   0.00   0.00   0.00   0.00  15.24   3.75
   15 195   119   118   57.6   38.9   1.70   0.61   76.6    4.0   11.0    0.6   0.61   1.71    0.00    0.00   0.00   0.00   0.00   0.00  15.08   3.65
   15 196   120   119   58.9   40.8   1.71   0.59   77.9    3.9   10.6    0.6   0.59   1.70    0.00    0.00   0.00   0.00   0.00   0.00  14.85   3.56
   15 197   121   120   60.2   42.6   1.72   0.57   78.8    3.8   10.3    0.6   0.57   1.66    0.00    0.00   0.00   0.00   0.00   0.00  14.35   3.47
   15 198   122   121   61.3   44.2   1.74   0.55   79.5    3.7   10.0    0.6   0.56   1.61    0.00    0.00   0.00   0.00   0.00   0.00  13.81   3.38
   15 199   123   122   62.3   45.7   1.75   0.54   80.2    3.6    9.7    0.5   0.54   1.57    0.00    0.00   0.00   0.00   0.00   0.00  13.35   3.30
   15 200   124   123   63.2   47.0   1.75   0.53   80.9    3.5    9.5    0.5   0.53   1.55    0.00    0.00   0.00   0.00   0.00   0.00  12.98   3.22
   15 201   125   124   64.0   48.2   1.75   0.51   81.5    3.4    9.2    0.5   0.51   1.52    0.00    0.00   0.00   0.00   0.00   0.00  12.65   3.14
   15 202   126   125   64.7   49.3   1.75   0.50   82.0    3.3    9.0    0.5   0.50   1.50    0.00    0.00   0.00   0.00   0.00   0.00  12.37   3.06
   15 203   127   126   65.4   50.4   1.75   0.49   82.5    3.3    8.7    0.5   0.49   1.49    0.00    0.00   0.00   0.00   0.00   0.00  12.11   2.98
   15 204   128   127   66.0   51.4   1.75   0.47   83.0    3.2    8.5    0.5   0.47   1.47    0.00    0.00   0.00   0.00   0.00   0.00  11.88   2.90
   15 205   129   128   66.5   52.3   1.75   0.46   83.5    3.1    8.3    0.5   0.46   1.46    0.00    0.00   0.00   0.00   0.00   0.00  11.66   2.82
   15 206   130   129   67.1   53.3   1.74   0.45   83.9    3.0    8.1    0.4   0.45   1.45    0.00    0.00   0.00   0.00   0.00   0.00  11.46   2.75
   15 207   131   130   67.6   54.1   1.73   0.44   84.4    2.9    7.9    0.4   0.43   1.44    0.00    0.00   0.00   0.00   0.00   0.00  11.29   2.68
   15 208   132   131   68.0   54.9   1.72   0.43   86.2    2.9    7.7    0.4   0.43   1.62    0.00    0.00   0.00   0.00   0.00   0.00  12.57   2.61
   15 209   133   132   69.0   56.2   1.73   0.42   87.8    2.8    7.5    0.4   0.42   1.69    0.00    0.00   0.00   0.00   0.00   0.00  12.99   2.55
   15 210   134   133   70.2   57.6   1.75   0.41   89.0    2.7    7.3    0.4   0.41   1.69    0.00    0.00   0.00   0.00   0.00   0.00  12.86   2.50
   15 211   135   134   71.4   59.1   1.77   0.40   90.2    2.7    7.2    0.4   0.40   1.69    0.00    0.00   0.00   0.00   0.00   0.00  12.72   2.46
   15 212   136   135   72.6   60.5   1.78   0.39   91.1    2.6    7.1    0.4   0.39   1.65    0.00    0.00   0.00   0.00   0.00   0.00  12.29   2.41
   15 213   137   136   73.5   61.7   1.80   0.38   91.6    2.6    6.9    0.4   0.38   1.60    0.00    0.00   0.00   0.00   0.00   0.00  11.80   2.35
   15 214   138   137   74.4   63.0   1.82   0.37   92.0    2.5    6.7    0.4   0.37   1.53    0.00    0.00   0.00   0.00   0.00   0.00  11.19   2.29
   15 215   139   138   75.2   64.0   1.82   0.36   92.4    2.4    6.5    0.4   0.36   1.48    0.00    0.00   0.00   0.00   0.00   0.00  10.69   2.22
   15 216   140   139   75.8   65.0   1.84   0.35   92.7    2.3    6.3    0.4   0.35   1.44    0.00    0.00   0.00   0.00   0.00   0.00  10.31   2.15
   15 217   141   140   76.2   65.8   1.84   0.34   93.0    2.3    6.1    0.3   0.34   1.41    0.00    0.00   0.00   0.05   0.10   0.10  10.02   2.08
   15 218   142   141   76.7   66.5   1.85   0.33   93.3    2.2    5.9    0.3   0.33   1.40    0.00    0.00   0.00   0.11   0.20   0.20   9.80   2.01
   15 219   143   142   76.8   67.0   1.86   0.32   93.4    2.1    5.7    0.3   0.32   1.42    0.00    0.00   0.00   0.15   0.29   0.29   9.85   1.95
   15 220   144   143   76.8   67.1   1.86   0.32   93.7    2.1    5.7    0.3   0.32   1.46    0.00    0.00   0.00   0.20   0.35   0.35  10.00   1.94
   15 221   145   144   76.9   67.1   1.86   0.32   93.9    2.1    5.7    0.3   0.32   1.49    0.00    0.00   0.00   0.06   0.12   0.12  10.15   1.94
   15 222   146   145   76.9   67.1   1.86   0.32   94.0    2.1    5.7    0.3   0.32   1.53    0.00    0.00   0.00   0.00   0.00   0.00  10.31   1.94
   15 223   147   146   76.9   67.1   1.86   0.32   94.0    2.1    5.7    0.3   0.32   1.53    0.00    0.00   0.00   0.00   0.00   0.00  10.21   1.94
   15 224   148   147   76.9   67.1   1.86   0.32   94.0    2.1    5.7    0.3   0.32   1.53    0.00    0.00   0.00   0.00   0.00   0.00  10.21   1.94
   15 225   149   148   76.9   67.1   1.86   0.32   94.0    2.1    5.7    0.3   0.32   1.53    0.00    0.00   0.00   0.00   0.00   0.00  10.21   1.94
   15 226   150   149   76.9   67.1   1.86   0.32   94.0    2.1    5.7    0.3   0.32   1.53    0.00    0.00   0.00   0.00   0.00   0.00  10.21   1.94
   15 227   151   150   76.9   67.1   1.86   0.32   94.0    2.1    5.7    0.3   0.32   1.53    0.00    0.00   0.00   0.00   0.00   0.00  10.21   1.94
   15 228   152   151   76.9   67.1   1.86   0.32   94.0    2.1    5.7    0.3   0.32   1.53    0.00    0.00   0.00   0.00   0.00   0.00  10.21   1.94
   15 229   153   152   76.9   67.1   1.86   0.32   94.0    2.1    5.7    0.3   0.32   1.53    0.00    0.00   0.00   0.00   0.00   0.00  10.21   1.94
   15 230   154   153   76.9   67.1   1.86   0.32   94.0    2.1    5.7    0.3   0.32   1.53    0.00    0.00   0.00   0.00   0.00   0.00  10.21   1.94
   15 231   155   154   76.9   67.1   1.86   0.32   94.0    2.1    5.7    0.3   0.32   1.53    0.00    0.00   0.00   0.00   0.00   0.00  10.21   1.94
   15 232   156   155   76.9   67.1   1.86   0.32   94.0    2.1    5.7    0.3   0.32   1.53    0.00    0.00   0.00   0.00   0.00   0.00  10.21   1.94
   15 233   157   156   76.9   67.1   1.86   0.32   94.0    2.1    5.7    0.3   0.32   1.53    0.00    0.00   0.00   0.00   0.00   0.00  10.21   1.94
   15 234   158   157   76.9   67.1   1.86   0.32   94.0    2.1    5.7    0.3   0.32   1.53    0.00    0.00   0.00   0.00   0.00   0.00  10.21   1.94
   15 235   159   158   76.9   67.1   1.86   0.32   94.0    2.1    5.7    0.3   0.32   1.53    0.00    0.00   0.00   0.00   0.00   0.00  10.21   1.94
   15 236   160   159   76.9   67.1   1.86   0.32   94.0    2.1    5.7    0.3   0.32   1.53    0.00    0.00   0.00   0.00   0.00   0.00  10.21   1.94
   15 237   161   160   76.9   67.1   1.86   0.32   94.0    2.1    5.7    0.3   0.32   1.53    0.00    0.00   0.00   0.00   0.00   0.00  10.21   1.94

*DSSAT Cropping System Model Ver. 4.8.5.000 -release  MAR 01, 2026 09:34:20

*RUN   4        : 4                         WHAPS048 TUDU1501    4
 MODEL          : WHAPS048 - Wheat
 EXPERIMENT     : TUDU1501 WH
 DATA PATH      :
 TREATMENT  4   : 4                         WHAPS048
  
@YEAR DOY   DAS   DAP   CNAD   GNAD   GN%D   VN%D   NUPC   LNAD   SNAD   LN%D   SN%D   RN%D   SNN0C   SNN1C NFact1 NFact2 NFact3 NFact4  RootN lfshthN
   15 077     1     0    0.0    0.0   0.00   0.00    0.0    0.0    0.0    0.0   0.00   0.00    0.00    0.00   0.00   0.00   0.00   0.00   0.00   0.00
   15 078     2     1    0.0    0.0   0.00   0.00    0.0    0.0    0.0    0.0   0.00   0.00    0.00    0.00   0.00   0.00   0.00   0.00   0.00   0.00
   15 079     3     2    0.0    0.0   0.00   0.00    0.0    0.0    0.0    0.0   0.00   0.00    0.00    0.00   0.00   0.00   0.00   0.00   0.00   0.00
   15 080     4     3    0.0    0.0   0.00   0.00    0.0    0.0    0.0    0.0   0.00   0.00    0.00    0.00   0.00   0.00   0.00   0.00   0.00   0.00
   15 081     5     4    0.0    0.0   0.00   0.00    0.0    0.0    0.0    0.0   0.00   0.00    0.00    0.00   0.00   0.00   0.00   0.00   0.00   0.00
   15 082     6     5    0.0    0.0   0.00   0.00    0.0    0.0    0.0    0.0   0.00   0.00    0.00    0.00   0.00   0.00   0.00   0.00   0.00   0.00
   15 083     7     6    0.0    0.0   0.00   0.00    0.0    0.0    0.0    0.0   0.00   0.00    0.00    0.00   0.00   0.00   0.00   0.00   0.00   0.00
   15 084     8     7    0.0    0.0   0.00   0.00    0.0    0.0    0.0    0.0   0.00   0.00    0.00    0.00   0.00   0.00   0.00   0.00   0.00   0.00
   15 085     9     8    0.0    0.0   0.00   0.00    0.0    0.0    0.0    0.0   0.00   0.00    0.00    0.00   0.00   0.00   0.00   0.00   0.00   0.00
   15 086    10     9    0.0    0.0   0.00   0.00    0.0    0.0    0.0    0.0   0.00   0.00    0.00    0.00   0.00   0.00   0.00   0.00   0.00   0.00
   15 087    11    10    0.0    0.0   0.00   0.00    0.0    0.0    0.0    0.0   0.00   0.00    0.00    0.00   0.00   0.00   0.00   0.00   0.00   0.00
   15 088    12    11    1.0    0.0   0.00   8.24    0.2    0.6    0.0    5.1   6.36   4.42    0.00    0.00   0.00   0.00   0.00   0.00   1.07   0.41
   15 089    13    12    1.2    0.0   0.00   7.89    0.3    0.7    0.0    5.5   6.36   4.32    0.00    0.00   0.00   0.00   0.00   0.00   1.06   0.41
   15 090    14    13    1.3    0.0   0.00   6.89    0.4    0.8    0.0    5.1   6.36   4.21    0.00    0.00   0.00   0.00   0.00   0.00   1.05   0.41
   15 091    15    14    1.5    0.0   0.00   7.36    0.6    1.0    0.0    6.0   6.36   4.06    0.00    0.00   0.00   0.00   0.00   0.00   1.04   0.41
   15 092    16    15    1.5    0.0   0.00   7.14    0.7    1.1    0.0    6.0   6.36   3.98    0.00    0.00   0.00   0.00   0.00   0.00   1.03   0.41
   15 093    17    16    1.5    0.0   0.00   6.40    0.7    1.1    0.0    5.7   6.36   3.79    0.00    0.00   0.00   0.00   0.00   0.00   1.02   0.41
   15 094    18    17    1.6    0.0   0.00   6.34    0.8    1.2    0.0    5.9   6.36   3.70    0.00    0.00   0.00   0.00   0.00   0.00   1.01   0.41
   15 095    19    18    1.7    0.0   0.00   6.22    0.8    1.2    0.0    6.0   6.36   3.53    0.00    0.00   0.00   0.00   0.00   0.00   1.00   0.41
   15 096    20    19    1.7    0.0   0.00   6.15    0.9    1.3    0.0    6.0   6.36   3.41    0.00    0.00   0.00   0.00   0.00   0.00   0.99   0.41
   15 097    21    20    1.8    0.0   0.00   5.81    0.9    1.3    0.0    5.8   6.36   3.19    0.00    0.00   0.00   0.00   0.00   0.00   0.98   0.41
   15 098    22    21    1.8    0.0   0.00   4.93    1.0    1.4    0.0    5.1   6.36   2.96    0.00    0.00   0.00   0.00   0.00   0.00   0.97   0.44
   15 099    23    22    2.3    0.0   0.00   4.78    1.4    1.6    0.0    4.9   6.36   2.69    0.00    0.00   0.00   0.31   0.53   0.53   0.96   0.60
   15 100    24    23    2.8    0.0   0.00   4.76    2.0    2.0    0.0    4.9   6.36   2.40    0.00    0.00   0.02   0.34   0.57   0.57   0.95   0.83
   15 101    25    24    3.6    0.0   0.00   4.87    2.7    2.4    0.0    4.9   6.36   2.17    0.00    0.00   0.00   0.34   0.56   0.56   0.94   1.12
   15 102    26    25    4.3    0.0   0.00   4.79    3.5    2.9    0.0    4.8   6.36   1.94    0.00    0.00   0.00   0.29   0.50   0.50   0.93   1.38
   15 103    27    26    5.0    0.0   0.00   4.67    4.3    3.3    0.0    4.7   6.36   1.80    0.00    0.00   0.00   0.30   0.51   0.51   0.98   1.71
   15 104    28    27    5.5    0.0   0.00   4.22    4.7    3.5    0.0    4.3   6.36   1.59    0.00    0.00   0.00   0.32   0.54   0.54   1.02   1.90
   15 105    29    28    5.8    0.0   0.00   3.81    5.1    3.7    0.0    4.0   6.36   1.37    0.00    0.00   0.16   0.44   0.69   0.69   1.06   2.05
   15 106    30    29    6.2    0.0   0.00   3.60    5.4    3.9    0.0    3.8   6.36   1.32    0.00    0.00   0.33   0.55   0.80   0.80   1.11   2.24
   15 107    31    30    9.5    0.0   0.00   5.10    9.2    5.7    0.0    5.1   6.36   1.79    0.00    0.00   0.42   0.61   0.85   0.85   1.59   3.73
   15 108    32    31   11.1    0.0   0.00   5.61   11.2    6.6    0.0    5.6   6.36   2.00    0.00    0.00   0.00   0.13   0.24   0.24   1.97   4.45
   15 109    33    32   12.0    0.0   0.00   5.55   12.4    7.0    0.0    5.5   6.36   1.99    0.00    0.00   0.00   0.00   0.00   0.00   2.28   4.89
   15 110    34    33   13.3    0.0   0.00   5.46   14.3    7.7    0.0    5.4   6.36   1.96    0.00    0.00   0.00   0.00   0.00   0.00   2.75   5.54
[...]
   15 106    30    29    5.3    0.0   0.00   3.41    4.5    3.4    0.0    3.6   6.36   1.37    0.00    0.00   0.45   0.63   0.86   0.86   1.04   1.86
   15 107    31    30    5.7    0.0   0.00   3.42    4.9    3.6    0.0    3.6   6.36   1.37    0.00    0.00   0.50   0.67   0.89   0.89   1.08   2.03
   15 108    32    31    6.2    0.0   0.00   3.61    5.5    3.9    0.0    3.7   6.36   1.38    0.00    0.00   0.49   0.66   0.89   0.89   1.15   2.27
   15 109    33    32    6.7    0.0   0.00   3.70    6.2    4.2    0.0    3.8   6.36   1.35    0.00    0.00   0.40   0.60   0.84   0.84   1.25   2.51
   15 110    34    33    7.3    0.0   0.00   3.69    6.8    4.5    0.0    3.8   6.36   1.28    0.00    0.00   0.34   0.56   0.80   0.80   1.34   2.74
   15 111    35    34    7.8    0.0   0.00   3.64    7.5    4.8    0.0    3.8   6.36   1.21    0.00    0.00   0.33   0.55   0.80   0.80   1.46   2.99
   15 112    36    35    8.3    0.0   0.00   3.57    8.2    5.1    0.0    3.7   6.36   1.16    0.00    0.00   0.34   0.56   0.80   0.80   1.59   3.24
   15 113    37    36    8.9    0.0   0.00   3.65    8.9    5.4    0.0    3.8   6.36   1.19    0.00    0.00   0.36   0.57   0.82   0.82   1.73   3.50
   15 114    38    37    9.4    0.0   0.00   3.60    9.6    5.6    0.0    3.7   6.36   1.16    0.00    0.00   0.31   0.54   0.79   0.79   1.87   3.75
   15 115    39    38   10.0    0.0   0.00   3.52   10.3    5.9    0.0    3.6   6.36   1.13    0.00    0.00   0.32   0.54   0.79   0.79   2.02   4.02
   15 116    40    39   10.6    0.0   0.00   3.38   11.1    6.2    0.0    3.5   6.36   1.08    0.00    0.00   0.34   0.56   0.80   0.80   2.19   4.30
   15 117    41    40   11.2    0.0   0.00   3.30   11.9    6.6    0.0    3.4   6.36   1.06    0.00    0.00   0.39   0.60   0.84   0.84   2.38   4.61
   15 118    42    41   11.9    0.0   0.00   3.37   12.9    6.9    0.0    3.5   6.36   1.10    0.00    0.00   0.42   0.62   0.85   0.85   2.59   4.95
   15 119    43    42   12.7    0.0   0.00   3.45   13.9    7.3    0.0    3.5   6.36   1.15    0.00    0.00   0.38   0.59   0.83   0.83   2.82   5.31
   15 120    44    43   13.4    0.0   0.00   3.43   14.9    7.7    0.0    3.5   6.36   1.15    0.00    0.00   0.32   0.55   0.80   0.80   3.05   5.67
   15 121    45    44   13.8    0.0   0.00   3.37   15.4    7.9    0.0    3.5   6.36   1.14    0.00    0.00   0.32   0.54   0.79   0.79   3.16   5.86
   15 122    46    45   14.2    0.0   0.00   3.26   15.9    8.1    0.0    3.3   6.36   1.09    0.00    0.00   0.34   0.56   0.81   0.81   3.25   6.03
   15 123    47    46   14.5    0.0   0.00   3.12   16.3    8.3    0.0    3.2   6.36   1.07    0.00    0.00   0.38   0.59   0.83   0.83   3.31   6.17
   15 124    48    47   14.9    0.0   0.00   2.99   16.9    8.5    0.0    3.1   6.36   1.03    0.00    0.00   0.44   0.63   0.86   0.86   3.43   6.38
   15 125    49    48   15.4    0.0   0.00   2.89   17.5    8.8    0.0    3.0   6.36   1.03    0.00    0.00   0.50   0.67   0.89   0.89   3.54   6.62
   15 126    50    49   15.6    0.0   0.00   2.83   17.8    8.9    0.0    2.9   6.36   1.00    0.00    0.00   0.55   0.70   0.91   0.91   3.58   6.72
   15 127    51    50   16.0    0.0   0.00   2.79   18.3    9.1    0.0    2.9   6.36   0.98    0.00    0.00   0.57   0.71   0.92   0.92   3.67   6.90
   15 128    52    51   16.4    0.0   0.00   2.74   19.0    9.3    0.0    2.8   6.36   0.95    0.00    0.00   0.58   0.72   0.92   0.92   3.80   7.12
   15 129    53    52   16.9    0.0   0.00   2.71   19.6    9.5    0.0    2.8   6.36   0.94    0.00    0.00   0.59   0.73   0.92   0.92   3.93   7.34
   15 130    54    53   17.4    0.0   0.00   2.69   20.2    9.8    0.0    2.8   6.36   0.94    0.00    0.00   0.59   0.73   0.93   0.93   4.08   7.57
   15 131    55    54   17.9    0.0   0.00   2.67   20.9   10.0    0.0    2.8   6.36   0.93    0.00    0.00   0.59   0.73   0.92   0.92   4.23   7.81
   15 132    56    55   18.3    0.0   0.00   2.61   21.6   10.3    0.0    2.7   6.36   0.91    0.00    0.00   0.58   0.72   0.92   0.92   4.39   8.05
   15 133    57    56   18.9    0.0   0.00   2.53   22.3   10.5    0.0    2.6   0.69   0.92    0.00    0.00   0.60   0.73   0.93   0.93   4.53   8.30
   15 134    58    57   19.4    0.0   0.00   2.48   23.0   10.8    0.1    2.6   0.60   0.93    0.00    0.00   0.63   0.75   0.94   0.94   4.67   8.55
   15 135    59    58   19.9    0.0   0.00   2.48   23.8   11.0    0.1    2.6   0.66   0.95    0.00    0.00   0.65   0.77   0.95   0.95   4.81   8.79
   15 136    60    59   20.4    0.0   0.00   2.40   24.4   11.2    0.2    2.6   0.60   0.95    0.00    0.00   0.63   0.75   0.94   0.94   4.92   9.01
   15 137    61    60   20.9    0.0   0.00   2.36   25.1   11.5    0.2    2.5   0.63   0.95    0.00    0.00   0.67   0.78   0.95   0.95   5.04   9.24
   15 138    62    61   21.4    0.0   0.00   2.30   25.8   11.7    0.3    2.5   0.62   0.95    0.00    0.00   0.67   0.78   0.95   0.95   5.15   9.46
   15 139    63    62   21.9    0.0   0.00   2.29   26.4   11.9    0.4    2.5   0.67   0.96    0.00    0.00   0.70   0.80   0.96   0.96   5.26   9.67
   15 140    64    63   22.4    0.0   0.00   2.29   27.0   12.1    0.4    2.5   0.73   0.98    0.00    0.00   0.70   0.80   0.96   0.96   5.35   9.86
   15 141    65    64   22.7    0.0   0.00   2.27   27.5   12.2    0.5    2.5   0.74   0.98    0.00    0.00   0.68   0.78   0.95   0.95   5.41  10.01
   15 142    66    65   23.1    0.0   0.00   2.22   28.0   12.4    0.6    2.4   0.72   0.98    0.00    0.00   0.68   0.79   0.95   0.95   5.48  10.18
   15 143    67    66   23.5    0.0   0.00   2.19   28.5   12.5    0.6    2.4   0.72   0.98    0.00    0.00   0.70   0.80   0.96   0.96   5.55  10.33
   15 144    68    67   23.9    0.0   0.00   2.17   29.0   12.7    0.7    2.4   0.73   0.98    0.00    0.00   0.71   0.81   0.96   0.96   5.61  10.48
   15 145    69    68   24.2    0.0   0.00   2.14   29.4   12.8    0.8    2.4   0.73   0.98    0.00    0.00   0.70   0.80   0.96   0.96   5.67  10.62
   15 146    70    69   24.6    0.0   0.00   2.12   30.0   13.0    0.9    2.4   0.74   0.98    0.00    0.00   0.71   0.81   0.96   0.96   5.74  10.77
   15 147    71    70   25.0    0.0   0.00   2.10   30.5   13.1    1.0    2.3   0.75   0.98    0.00    0.00   0.71   0.81   0.96   0.96   5.81  10.92
   15 148    72    71   25.4    0.0   0.00   2.05   31.0   13.3    1.1    2.3   0.74   0.98    0.00    0.00   0.71   0.81   0.96   0.96   5.88  11.07
   15 149    73    72   25.8    0.0   0.00   2.03   31.6   13.4    1.2    2.3   0.74   0.97    0.00    0.00   0.73   0.82   0.97   0.97   5.95  11.22
   15 150    74    73   26.3    0.0   0.00   2.01   32.2   13.5    1.3    2.3   0.76   0.98    0.00    0.00   0.73   0.82   0.97   0.97   6.04  11.38
   15 151    75    74   26.7    0.0   0.00   1.98   32.8   13.7    1.5    2.3   0.77   0.98    0.00    0.00   0.72   0.81   0.96   0.96   6.13  11.54
   15 152    76    75   27.2    0.0   0.00   1.96   33.4   13.8    1.6    2.2   0.78   0.98    0.00    0.00   0.71   0.81   0.96   0.96   6.23  11.69
   15 153    77    76   27.6    0.0   0.00   1.94   34.0   14.0    1.8    2.2   0.78   0.98    0.00    0.00   0.69   0.80   0.96   0.96   6.34  11.85
   15 154    78    77   28.1    0.0   0.00   1.91   34.7   14.1    2.0    2.2   0.79   0.98    0.00    0.00   0.68   0.78   0.95   0.95   6.46  12.00
   15 155    79    78   28.7    0.0   0.00   1.88   35.4   14.3    2.3    2.2   0.79   0.98    0.00    0.00   0.67   0.78   0.95   0.95   6.60  12.16
   15 156    80    79   29.2    0.0   0.00   1.85   36.2   14.4    2.5    2.2   0.81   0.99    0.00    0.00   0.65   0.77   0.95   0.95   6.76  12.31
   15 157    81    80   29.8    0.0   0.00   1.83   37.1   14.5    2.8    2.2   0.83   1.00    0.00    0.00   0.63   0.75   0.94   0.94   6.94  12.47
   15 158    82    81   30.4    0.0   0.00   1.81   38.0   14.6    3.2    2.2   0.81   1.01    0.00    0.00   0.57   0.71   0.92   0.92   7.14  12.59
   15 159    83    82   31.1    0.0   0.00   1.81   39.0   14.7    3.7    2.2   0.85   1.04    0.00    0.00   0.53   0.69   0.90   0.90   7.39  12.71
   15 160    84    83   31.8    0.0   0.00   1.81   40.0   14.8    4.2    2.2   0.90   1.08    0.00    0.00   0.47   0.64   0.87   0.87   7.68  12.81
   15 161    85    84   32.5    0.0   0.00   1.80   41.1   14.8    4.8    2.2   0.92   1.12    0.00    0.00   0.37   0.58   0.82   0.82   8.00  12.89
   15 162    86    85   33.2    0.0   0.00   1.76   42.3   14.8    5.5    2.2   0.91   1.14    0.00    0.00   0.28   0.52   0.77   0.77   8.33  12.92
   15 163    87    86   34.0    0.0   0.00   1.70   43.4   14.8    6.3    2.2   0.88   1.15    0.00    0.00   0.25   0.50   0.75   0.75   8.63  12.92
   15 164    88    87   34.8    0.0   0.00   1.66   44.6   14.8    7.1    2.2   0.87   1.16    0.00    0.00   0.26   0.50   0.75   0.75   8.93  12.92
   15 165    89    88   35.7    0.0   0.00   1.62   45.9   14.8    8.0    2.2   0.86   1.17    0.00    0.00   0.22   0.48   0.73   0.73   9.23  12.92
   15 166    90    89   36.4    0.0   0.00   1.61   47.0   14.8    8.7    2.2   0.89   1.20    0.00    0.00   0.22   0.48   0.73   0.73   9.49  12.92
   15 167    91    90   37.4    0.0   0.00   1.58   48.4   14.8    9.7    2.2   0.89   1.21    0.00    0.00   0.14   0.43   0.67   0.67   9.82  12.92
   15 168    92    91   38.5    0.0   0.00   1.55   50.0   14.8   10.8    2.2   0.89   1.22    0.00    0.00   0.12   0.41   0.66   0.66  10.17  12.92
   15 169    93    92   39.5    0.0   0.00   1.54   51.4   14.8   11.8    2.2   0.93   1.25    0.00    0.00   0.11   0.41   0.65   0.65  10.47  12.92
   15 170    94    93   40.6    0.0   0.00   1.52   52.9   14.8   12.9    2.2   0.93   1.26    0.00    0.00   0.01   0.34   0.57   0.57  10.79  12.92
   15 171    95    94   41.7    0.0   0.00   1.51   54.4   14.8   14.0    2.2   0.95   1.28    0.00    0.00   0.00   0.31   0.53   0.53  11.10  12.92
   15 172    96    95   42.7    0.0   0.00   1.50   55.9   14.8   15.0    2.2   0.96   1.30    0.00    0.00   0.00   0.27   0.47   0.47  11.39  12.92
   15 173    97    96   43.8    0.0   0.00   1.48   57.3   14.8   16.1    2.2   0.96   1.32    0.00    0.00   0.00   0.20   0.35   0.35  11.68  12.92
   15 174    98    97   44.8    0.0   0.00   1.46   58.7   14.8   17.1    2.2   0.96   1.34    0.00    0.00   0.00   0.11   0.21   0.21  11.93  12.92
   15 175    99    98   45.8    0.0   0.00   1.43   60.1   14.8   18.1    2.2   0.94   1.36    0.00    0.00   0.00   0.00   0.00   0.00  12.16  12.92
   15 176   100    99   46.7    0.0   0.00   1.39   61.3   14.8   19.0    2.2   0.92   1.37    0.00    0.00   0.00   0.00   0.00   0.00  12.36  12.92
   15 177   101   100   47.6    0.0   0.00   1.36   62.5   14.8   19.9    2.2   0.90   1.38    0.00    0.00   0.00   0.00   0.00   0.00  12.56  12.92
   15 178   102   101   48.4    0.0   0.00   1.35   63.6   14.8   20.7    2.2   0.90   1.40    0.00    0.00   0.00   0.00   0.00   0.00  12.76  12.92
   15 179   103   102   49.1    0.0   0.00   1.32   64.7   14.8   21.4    2.2   0.88   1.42    0.00    0.00   0.00   0.00   0.00   0.00  12.98  12.92
   15 180   104   103   49.8    0.0   0.00   1.29   65.7   14.8   22.1    2.2   0.86   1.43    0.00    0.00   0.00   0.00   0.00   0.00  13.22  12.92
   15 181   105   104   50.4    0.0   0.00   1.27   66.8   14.8   22.7    2.2   0.84   1.46    0.00    0.00   0.00   0.00   0.00   0.00  13.52  12.92
   15 182   106   105   50.9    0.0   0.00   1.24   67.8   14.8   23.2    2.2   0.82   1.49    0.00    0.00   0.00   0.00   0.00   0.00  13.89  12.92
   15 183   107   106   51.1    0.0   0.00   1.21   68.5   14.8   23.4    2.2   0.79   1.54    0.00    0.00   0.00   0.00   0.00   0.00  14.45  12.92
   15 184   108   107   51.6   11.5   2.39   1.04   69.3   12.8   18.8    1.9   0.74   1.57    0.00    0.00   0.00   0.00   0.00   0.00  14.78   8.44
   15 185   109   108   51.8   14.7   2.14   1.00   69.9   10.9   18.7    1.6   0.77   1.63    0.00    0.00   0.00   0.00   0.00   0.00  15.36   7.46
   15 186   110   109   51.8   18.1   2.00   0.94   70.5    9.2   18.0    1.4   0.78   1.71    0.00    0.00   0.00   0.00   0.00   0.00  16.10   6.54
   15 187   111   110   51.8   20.8   1.85   0.89   70.7    7.9   17.2    1.2   0.79   1.72    0.00    0.00   0.00   0.00   0.00   0.00  16.13   5.88
   15 188   112   111   52.0   24.2   1.82   0.83   71.0    6.6   16.0    1.0   0.78   1.72    0.00    0.00   0.00   0.00   0.00   0.00  16.06   5.18
   15 189   113   112   52.0   26.2   1.75   0.79   71.0    5.9   15.1    0.9   0.76   1.71    0.00    0.00   0.00   0.00   0.00   0.00  15.91   4.79
   15 190   114   113   52.0   28.0   1.70   0.75   71.0    5.4   14.2    0.8   0.74   1.71    0.00    0.00   0.00   0.00   0.00   0.00  15.80   4.47
   15 191   115   114   52.4   30.0   1.66   0.70   71.5    4.9   13.3    0.7   0.70   1.71    0.00    0.00   0.00   0.00   0.00   0.00  15.69   4.21
   15 192   116   115   53.6   32.4   1.64   0.68   72.7    4.6   12.7    0.7   0.69   1.71    0.00    0.00   0.00   0.00   0.00   0.00  15.52   4.02
   15 193   117   116   55.0   34.7   1.63   0.66   73.7    4.4   12.0    0.7   0.67   1.66    0.00    0.00   0.00   0.00   0.00   0.00  15.00   3.87
   15 194   118   117   56.2   36.8   1.68   0.63   74.6    4.2   11.4    0.6   0.64   1.63    0.00    0.00   0.00   0.00   0.00   0.00  14.56   3.75
   15 195   119   118   57.3   38.6   1.69   0.61   75.4    4.0   11.0    0.6   0.61   1.60    0.00    0.00   0.00   0.00   0.00   0.00  14.17   3.65
   15 196   120   119   58.3   40.2   1.69   0.59   76.2    3.9   10.6    0.6   0.59   1.58    0.00    0.00   0.00   0.00   0.00   0.00  13.80   3.56
   15 197   121   120   59.2   41.6   1.68   0.57   76.9    3.8   10.3    0.6   0.57   1.55    0.00    0.00   0.00   0.00   0.00   0.00  13.46   3.47
   15 198   122   121   60.1   43.0   1.69   0.55   77.6    3.7   10.0    0.6   0.56   1.53    0.00    0.00   0.00   0.00   0.00   0.00  13.14   3.38
   15 199   123   122   60.8   44.2   1.69   0.54   78.2    3.6    9.7    0.5   0.54   1.51    0.00    0.00   0.00   0.00   0.00   0.00  12.85   3.30
   15 200   124   123   61.5   45.3   1.69   0.53   78.8    3.5    9.5    0.5   0.53   1.50    0.00    0.00   0.00   0.00   0.00   0.00  12.59   3.22
   15 201   125   124   62.2   46.4   1.69   0.51   79.3    3.4    9.2    0.5   0.51   1.48    0.00    0.00   0.00   0.00   0.00   0.00  12.35   3.14
   15 202   126   125   62.8   47.4   1.68   0.50   79.8    3.3    9.0    0.5   0.50   1.47    0.00    0.00   0.00   0.00   0.00   0.00  12.13   3.06
   15 203   127   126   63.4   48.4   1.68   0.49   80.3    3.3    8.7    0.5   0.49   1.46    0.00    0.00   0.00   0.00   0.00   0.00  11.92   2.98
   15 204   128   127   63.9   49.3   1.68   0.47   80.7    3.2    8.5    0.5   0.47   1.45    0.00    0.00   0.00   0.00   0.00   0.00  11.72   2.90
   15 205   129   128   64.4   50.2   1.68   0.46   81.2    3.1    8.3    0.5   0.46   1.44    0.00    0.00   0.00   0.00   0.00   0.00  11.54   2.82
   15 206   130   129   64.9   51.1   1.67   0.45   81.6    3.0    8.1    0.4   0.45   1.44    0.00    0.00   0.00   0.00   0.00   0.00  11.36   2.75
   15 207   131   130   65.4   51.9   1.66   0.44   82.0    2.9    7.9    0.4   0.43   1.43    0.00    0.00   0.00   0.00   0.00   0.00  11.19   2.68
   15 208   132   131   65.8   52.7   1.65   0.43   82.6    2.9    7.7    0.4   0.43   1.45    0.00    0.00   0.00   0.00   0.00   0.00  11.24   2.61
   15 209   133   132   66.3   53.5   1.65   0.42   83.2    2.8    7.5    0.4   0.42   1.47    0.00    0.00   0.00   0.00   0.00   0.00  11.26   2.55
   15 210   134   133   66.8   54.3   1.65   0.41   83.8    2.7    7.3    0.4   0.41   1.47    0.00    0.00   0.00   0.00   0.00   0.00  11.20   2.49
   15 211   135   134   67.4   55.2   1.65   0.40   84.3    2.7    7.2    0.4   0.40   1.46    0.00    0.00   0.00   0.00   0.00   0.00  11.00   2.44
   15 212   136   135   68.0   56.0   1.65   0.39   84.7    2.6    7.0    0.4   0.39   1.44    0.00    0.00   0.00   0.00   0.00   0.00  10.75   2.38
   15 213   137   136   68.5   56.8   1.66   0.38   85.1    2.5    6.8    0.4   0.38   1.42    0.00    0.00   0.00   0.00   0.00   0.00  10.50   2.33
   15 214   138   137   68.9   57.5   1.66   0.37   85.4    2.5    6.7    0.4   0.37   1.41    0.00    0.00   0.00   0.00   0.00   0.00  10.29   2.27
   15 215   139   138   69.3   58.2   1.66   0.36   85.7    2.4    6.5    0.4   0.36   1.40    0.00    0.00   0.00   0.00   0.00   0.00  10.09   2.21
   15 216   140   139   69.7   58.9   1.66   0.35   86.0    2.3    6.3    0.3   0.35   1.39    0.00    0.00   0.00   0.03   0.06   0.06   9.91   2.14
   15 217   141   140   70.0   59.6   1.67   0.34   86.3    2.3    6.1    0.3   0.34   1.38    0.00    0.00   0.00   0.08   0.16   0.16   9.76   2.08
   15 218   142   141   70.3   60.2   1.68   0.33   86.5    2.2    5.9    0.3   0.33   1.37    0.00    0.00   0.00   0.13   0.24   0.24   9.62   2.01
   15 219   143   142   70.4   60.7   1.69   0.32   86.8    2.1    5.7    0.3   0.32   1.39    0.00    0.00   0.00   0.17   0.30   0.30   9.66   1.94
   15 220   144   143   70.5   60.8   1.69   0.32   87.1    2.1    5.7    0.3   0.32   1.42    0.00    0.00   0.00   0.20   0.37   0.37   9.78   1.94
   15 221   145   144   70.5   60.8   1.69   0.32   87.3    2.1    5.7    0.3   0.32   1.46    0.00    0.00   0.00   0.08   0.15   0.15   9.91   1.94
   15 222   146   145   70.5   60.8   1.69   0.32   87.4    2.1    5.7    0.3   0.32   1.49    0.00    0.00   0.00   0.00   0.00   0.00  10.06   1.94
   15 223   147   146   70.5   60.8   1.69   0.32   87.4    2.1    5.7    0.3   0.32   1.49    0.00    0.00   0.00   0.00   0.00   0.00   9.96   1.94
   15 224   148   147   70.5   60.8   1.69   0.32   87.4    2.1    5.7    0.3   0.32   1.49    0.00    0.00   0.00   0.00   0.00   0.00   9.96   1.94
   15 225   149   148   70.5   60.8   1.69   0.32   87.4    2.1    5.7    0.3   0.32   1.49    0.00    0.00   0.00   0.00   0.00   0.00   9.96   1.94
   15 226   150   149   70.5   60.8   1.69   0.32   87.4    2.1    5.7    0.3   0.32   1.49    0.00    0.00   0.00   0.00   0.00   0.00   9.96   1.94
   15 227   151   150   70.5   60.8   1.69   0.32   87.4    2.1    5.7    0.3   0.32   1.49    0.00    0.00   0.00   0.00   0.00   0.00   9.96   1.94
   15 228   152   151   70.5   60.8   1.69   0.32   87.4    2.1    5.7    0.3   0.32   1.49    0.00    0.00   0.00   0.00   0.00   0.00   9.96   1.94
   15 229   153   152   70.5   60.8   1.69   0.32   87.4    2.1    5.7    0.3   0.32   1.49    0.00    0.00   0.00   0.00   0.00   0.00   9.96   1.94
   15 230   154   153   70.5   60.8   1.69   0.32   87.4    2.1    5.7    0.3   0.32   1.49    0.00    0.00   0.00   0.00   0.00   0.00   9.96   1.94
   15 231   155   154   70.5   60.8   1.69   0.32   87.4    2.1    5.7    0.3   0.32   1.49    0.00    0.00   0.00   0.00   0.00   0.00   9.96   1.94
   15 232   156   155   70.5   60.8   1.69   0.32   87.4    2.1    5.7    0.3   0.32   1.49    0.00    0.00   0.00   0.00   0.00   0.00   9.96   1.94
   15 233   157   156   70.5   60.8   1.69   0.32   87.4    2.1    5.7    0.3   0.32   1.49    0.00    0.00   0.00   0.00   0.00   0.00   9.96   1.94
   15 234   158   157   70.5   60.8   1.69   0.32   87.4    2.1    5.7    0.3   0.32   1.49    0.00    0.00   0.00   0.00   0.00   0.00   9.96   1.94
   15 235   159   158   70.5   60.8   1.69   0.32   87.4    2.1    5.7    0.3   0.32   1.49    0.00    0.00   0.00   0.00   0.00   0.00   9.96   1.94
   15 236   160   159   70.5   60.8   1.69   0.32   87.4    2.1    5.7    0.3   0.32   1.49    0.00    0.00   0.00   0.00   0.00   0.00   9.96   1.94
   15 237   161   160   70.5   60.8   1.69   0.32   87.4    2.1    5.7    0.3   0.32   1.49    0.00    0.00   0.00   0.00   0.00   0.00   9.96   1.94
