*GROWTH ASPECTS OUTPUT FILE

*DSSAT Cropping System Model Ver. 4.8.5.000 -release  MAR 01, 2026 09:34:20

*RUN   1        : 1                         WHAPS048 TUDU1501    1
 MODEL          : WHAPS048 - Wheat
 EXPERIMENT     : TUDU1501 WH
 DATA PATH      :
 TREATMENT  1   : 1                         WHAPS048
  
!                                                                                                                                                                                                                                             Root Dens. (cm/cm3) by soil depth (cm):
!                                                                                                                                                                                                                                             0-5    5-15   15-20   20-30   30-40   40-50   50-60   60-70   70-90  90-210
@YEAR DOY   DAS   DAP    DCCD  GSTD   LAID   LWAD   SWAD   GWAD   RWAD   VWAD   CWAD   G#AD   G#AD2  GWGD   HIAD   SHAD   WSPD   WSGD   SLFT   NSTD   EWSD  PST1A  PST2A   KSTD   LN%D   TPSM   HIPD   PWDD   PWTD     SLAD   CHTD   CWID   RDPD    RL1D    RL2D    RL3D    RL4D    RL5D    RL6D    RL7D    RL8D    RL9D   RL10D   CDAD   LDAD   SDAD   SNW0C   SNW1C    DTTD   SUMDTT
   15 077     1     0   0.000     8  0.000      0      0      0      0      0      0      0      0    0.0  0.000      0   0.00   0.00   0.00   0.00   0.00   0.00   0.00   1.00   0.00    0.0   0.00      0      0      0.0   0.00   0.00 0.0250   0.000   0.000   0.000   0.000   0.000   0.000   0.000   0.000   0.000   0.000      0      0      0       0       0   7.650    0.000
   15 078     2     1   0.000     8  0.000      0      0      0      0      0      0      0      0    0.0  0.000      0   0.00   0.00   0.00   0.00   0.00   0.00   0.00   1.00   0.00    0.0   0.00      0      0      0.0   0.00   0.00 0.0250   0.000   0.000   0.000   0.000   0.000   0.000   0.000   0.000   0.000   0.000      0      0      0       0       0   7.398    7.398
   15 079     3     2   1.008     9  0.000      0      0      0      0      0      0      0      0    0.0  0.000      0   0.00   0.00   0.00   0.00   0.00   0.00   0.00   1.00   0.00    0.0   0.00      0      0      0.0   0.00   0.00 0.0250   0.000   0.000   0.000   0.000   0.000   0.000   0.000   0.000   0.000   0.000      0      0      0       0       0   6.604    6.604
   15 080     4     3   2.023     9  0.000      0      0      0      0      0      0      0      0    0.0  0.000      0   0.00   0.00   0.00   0.00   0.00   0.00   0.00   1.00   0.00    0.0   0.00      0      0      0.0   0.00   0.00 0.0316   0.000   0.000   0.000   0.000   0.000   0.000   0.000   0.000   0.000   0.000      0      0      0       0       0   6.650   13.254
   15 081     5     4   2.657     9  0.000      0      0      0      0      0      0      0      0    0.0  0.000      0   0.00   0.00   0.00   0.00   0.00   0.00   0.00   1.00   0.00    0.0   0.00      0      0      0.0   0.00   0.00 0.0383   0.000   0.000   0.000   0.000   0.000   0.000   0.000   0.000   0.000   0.000      0      0      0       0       0   4.150   17.404
   15 082     6     5   3.241     9  0.000      0      0      0      0      0      0      0      0    0.0  0.000      0   0.00   0.00   0.00   0.00   0.00   0.00   0.00   1.00   0.00    0.0   0.00      0      0      0.0   0.00   0.00 0.0424   0.000   0.000   0.000   0.000   0.000   0.000   0.000   0.000   0.000   0.000      0      0      0       0       0   3.828   21.232
   15 083     7     6   4.432     9  0.000      0      0      0      0      0      0      0      0    0.0  0.000      0   0.00   0.00   0.00   0.00   0.00   0.00   0.00   1.00   0.00    0.0   0.00      0      0      0.0   0.00   0.00 0.0462   0.000   0.000   0.000   0.000   0.000   0.000   0.000   0.000   0.000   0.000      0      0      0       0       0   7.795   29.027
   15 084     8     7   5.798     9  0.000      0      0      0      0      0      0      0      0    0.0  0.000      0   0.00   0.00   0.00   0.00   0.00   0.00   0.00   1.00   0.00    0.0   0.00      0      0      0.0   0.00   0.00 0.0500   0.000   0.000   0.000   0.000   0.000   0.000   0.000   0.000   0.000   0.000      0      0      0       0       0   8.950   37.977
   15 085     9     8   6.760     9  0.000      0      0      0      0      0      0      0      0    0.0  0.000      0   0.00   0.00   0.00   0.00   0.00   0.00   0.00   1.00   0.00    0.0   0.00      0      0      0.0   0.00   0.00 0.0500   0.000   0.000   0.000   0.000   0.000   0.000   0.000   0.000   0.000   0.000      0      0      0       0       0   6.300   44.277
   15 086    10     9   7.745     9  0.000      0      0      0      0      0      0      0      0    0.0  0.000      0   0.00   0.00   0.00   0.00   0.00   0.00   0.00   1.00   0.00    0.0   0.00      0      0      0.0   0.00   0.00 0.0500   0.000   0.000   0.000   0.000   0.000   0.000   0.000   0.000   0.000   0.000      0      0      0       0       0   6.450   50.727
   15 087    11    10   8.722     9  0.000      0      0      0      0      0      0      0      0    0.0  0.000      0   0.00   0.00   0.00   0.00   0.00   0.00   0.00   1.00   0.00    0.0   0.00      0      0      0.0   0.00   0.00 0.0500   0.000   0.000   0.000   0.000   0.000   0.000   0.000   0.000   0.000   0.000      0      0      0       0       0   6.400   57.127
   15 088    12    11  10.056     1  0.018     12      0      0     24     12     12      0      0    0.0  0.000      0   0.00   0.00   1.00   0.00   0.00   0.00   0.00   1.00   5.07  400.0   0.00      0      0    399.3   0.00   0.00 0.0636   0.041   0.006   0.000   0.000   0.000   0.000   0.000   0.000   0.000   0.000      0      0      0       0       0   9.500    1.127
   15 089    13    12  10.311     1  0.020     13      0      0     24     15     15      0      0    0.0  0.000      1   0.00   0.00   1.00   0.00   0.00   0.00   0.00   1.00   5.49  400.0   0.00      0      1    396.0   0.00   0.00 0.0731   0.040   0.006   0.000   0.000   0.000   0.000   0.000   0.000   0.000   0.000      0      0      0       0       0   6.650    6.218
   15 090    14    13  10.609     1  0.023     16      0      0     25     19     19      0      0    0.0  0.000      2   0.00   0.00   1.00   0.00   0.00   0.00   0.00   1.00   5.15  400.0   0.00      0      2    392.3   0.00   0.00 0.0842   0.040   0.006   0.000   0.000   0.000   0.000   0.000   0.000   0.000   0.000      0      0      0       0       0   7.750   12.186
   15 091    15    14  10.739     1  0.026     17      0      0     26     20     20      0      0    0.0  0.000      2   0.00   0.00   1.00   0.00   0.00   0.00   0.00   1.00   6.02  400.0   0.00      0      2    390.7   0.00   0.00 0.0890   0.040   0.006   0.000   0.000   0.000   0.000   0.000   0.000   0.000   0.000      0      0      0       0       0   3.350   14.786
   15 092    16    15  10.861     1  0.028     18      0      0     26     21     21      0      0    0.0  0.000      3   0.00   0.00   1.00   0.00   0.00   0.00   0.00   1.00   6.03  400.0   0.00      0      3    389.3   0.00   0.00 0.0934   0.039   0.006   0.000   0.000   0.000   0.000   0.000   0.000   0.000   0.000      0      0      0       0       0   3.100   17.210
   15 093    17    16  11.069     1  0.033     19      0      0     27     24     24      0      0    0.0  0.000      4   0.00   0.00   1.00   0.00   0.00   0.00   0.00   1.00   5.72  400.0   0.00      0      4    386.8   0.00   0.00 0.1010   0.039   0.006   0.000   0.000   0.000   0.000   0.000   0.000   0.000   0.000      0      0      0       0       0   5.286   21.370
   15 094    18    17  11.211     1  0.036     20      0      0     27     26     26      0      0    0.0  0.000      5   0.00   0.00   1.00   0.00   0.00   0.00   0.00   1.00   5.90  400.0   0.00      0      5    385.2   0.00   0.00 0.1061   0.039   0.006   0.000   0.000   0.000   0.000   0.000   0.000   0.000   0.000      0      0      0       0       0   3.600   24.226
   15 095    19    18  11.357     1  0.039     21      0      0     28     27     27      0      0    0.0  0.000      6   0.00   0.00   1.00   0.00   0.00   0.00   0.00   1.00   5.97  400.0   0.00      0      6    383.5   0.00   0.00 0.1113   0.038   0.006   0.000   0.000   0.000   0.000   0.000   0.000   0.000   0.000      0      0      0       0       0   3.645   27.136
   15 096    20    19  11.483     1  0.040     21      0      0     29     28     28      0      0    0.0  0.000      6   0.00   0.00   1.00   0.00   0.00   0.00   0.00   1.00   6.02  400.0   0.00      0      6    382.1   0.00   0.00 0.1158   0.038   0.006   0.000   0.000   0.000   0.000   0.000   0.000   0.000   0.000      0      0      0       0       0   3.134   29.652
   15 097    21    20  11.652     1  0.044     22      0      0     31     30     30      0      0    0.0  0.000      7   0.00   0.00   1.00   0.00   0.00   0.00   0.00   1.00   5.85  400.0   0.00      0      7    380.2   0.00   0.00 0.1218   0.038   0.006   0.000   0.000   0.000   0.000   0.000   0.000   0.000   0.000      0      0      0       0       0   4.189   33.034
   15 098    22    21  11.961     1  0.054     27      0      0     33     37     37      0      0    0.0  0.000     10   0.00   0.00   1.00   0.00   0.00   0.00   0.00   1.00   5.08  400.0   0.00      0     10    376.9   0.00   0.00 0.1327   0.038   0.006   0.000   0.000   0.000   0.000   0.000   0.000   0.000   0.000      0      0      0       0       0   7.619   39.220
   15 099    23    22  12.377     1  0.069     33      0      0     36     47     47      0      0    0.0  0.000     14   0.00   0.00   1.00   0.31   0.00   0.00   0.00   1.00   4.92  400.0   0.00      0     14    372.5   0.00   0.00 0.1473   0.038   0.006   0.000   0.000   0.000   0.000   0.000   0.000   0.000   0.000      0      0      0       0       0  10.200   47.538
   15 100    24    23  12.841     1  0.087     41      0      0     40     60     60      0      0    0.0  0.000     19   0.00   0.00   1.00   0.34   0.00   0.00   0.00   1.00   4.91  400.0   0.00      0     19    367.8   0.00   0.00 0.1635   0.038   0.006   0.000   0.000   0.000   0.000   0.000   0.000   0.000   0.000      0      0      0       0       0  11.350   56.827
   15 101    25    24  13.322     1  0.104     49      0      0     43     73     73      0      0    0.0  0.000     24   0.00   0.00   1.00   0.34   0.00   0.00   0.00   1.00   4.91  400.0   0.00      0     24    363.3   0.00   0.00 0.1789   0.038   0.006   0.000   0.000   0.000   0.000   0.000   0.000   0.000   0.000      0      0      0       0       0  11.700   66.435
   15 102    26    25  13.828     1  0.127     59      0      0     48     90     90      0      0    0.0  0.000     30   0.00   0.00   1.00   0.29   0.00   0.00   0.00   1.00   4.85  400.0   0.00      0     30    358.6   0.00   0.00 0.1952   0.038   0.006   0.000   0.000   0.000   0.000   0.000   0.000   0.000   0.000      0      0      0       0       0  12.300   76.568
   15 103    27    26  14.318     1  0.153     70      0      0     54    108    108      0      0    0.0  0.000     37   0.00   0.00   1.00   0.30   0.00   0.00   0.00   1.00   4.82  400.0   0.00      0     37    354.4   0.00   0.00 0.2108   0.038   0.006   0.000   0.000   0.000   0.000   0.000   0.000   0.000   0.000      0      0      0       0       0  11.850   86.362
   15 104    28    27  14.820     1  0.191     82      0      0     63    131    131      0      0    0.0  0.000     48   0.00   0.00   1.00   0.28   0.00   0.00   0.00   1.00   4.49  400.0   0.00      0     48    350.3   0.00   0.00 0.2255   0.038   0.006   0.001   0.000   0.000   0.000   0.000   0.000   0.000   0.000      0      0      0       0       0  12.100   96.395
   15 105    29    28  15.418     1  0.232     95      0      0     78    155    155      0      0    0.0  0.000     60   0.00   0.00   1.00   0.39   0.00   0.00   0.00   1.00   4.11  400.0   0.00      0     60    345.6   0.00   0.00 0.2429   0.038   0.007   0.001   0.000   0.000   0.000   0.000   0.000   0.000   0.000      0      0      0       0       0  14.400  108.358
   15 106    30    29  16.071     1  0.266    108      0      0     86    178    178      0      0    0.0  0.000     70   0.00   0.00   1.00   0.51   0.00   0.00   0.00   1.00   3.87  400.0   0.00      0     70    340.8   0.00   0.00 0.2619   0.037   0.007   0.002   0.001   0.000   0.000   0.000   0.000   0.000   0.000      0      0      0       0       0  15.700  121.418
   15 107    31    30  16.524     1  0.288    115      0      0     91    192    192      0      0    0.0  0.000     77   0.00   0.00   1.00   0.57   0.00   0.00   0.00   1.00   5.23  400.0   0.00      0     77    337.7   0.00   0.00 0.2750   0.037   0.008   0.003   0.001   0.000   0.000   0.000   0.000   0.000   0.000      0      0      0       0       0  10.850  130.478
   15 108    32    31  16.755     1  0.307    122      0      0    101    204    204      0      0    0.0  0.000     82   0.00   0.00   1.00   0.08   0.00   0.00   0.00   1.00   5.58  400.0   0.00      0     82    336.2   0.00   0.00 0.2817   0.037   0.008   0.003   0.001   0.000   0.000   0.000   0.000   0.000   0.000      0      0      0       0       0   5.500  135.101
   15 109    33    32  17.068     1  0.336    131      0      0    117    222    222      0      0    0.0  0.000     91   0.00   0.00   1.00   0.00   0.00   0.00   0.00   1.00   5.52  400.0   0.00      0     91    334.1   0.00   0.00 0.2906   0.038   0.008   0.003   0.001   0.000   0.000   0.000   0.000   0.000   0.000      0      0      0       0       0   7.410  141.365
   15 110    34    33  17.458     1  0.380    146      0      0    143    250    250      0      0    0.0  0.000    104   0.00   0.00   1.00   0.00   0.00   0.00   0.00   1.00   5.42  400.0   0.00      0    104    331.7   0.00   0.00 0.3017   0.039   0.009   0.003   0.002   0.000   0.000   0.000   0.000   0.000   0.000      0      0      0       0       0   9.170  149.152
   15 111    35    34  17.912     1  0.441    167      0      0    178    290    290      0      0    0.0  0.000    123   0.00   0.00   1.00   0.00   0.00   0.00   0.00   1.00   5.33  400.0   0.00      0    123    328.9   0.00   0.00 0.3134   0.040   0.009   0.004   0.002   0.000   0.000   0.000   0.000   0.000   0.000      0      0      0       0       0  10.650  158.232
   15 112    36    35  18.391     1  0.507    189      0      0    217    332    332      0      0    0.0  0.000    143   0.00   0.00   1.00   0.00   0.00   0.00   0.00   1.00   5.27  400.0   0.00      0    143    326.2   0.00   0.00 0.3258   0.042   0.011   0.005   0.003   0.000   0.000   0.000   0.000   0.000   0.000      0      0      0       0       0  11.200  167.815
   15 113    37    36  18.653     1  0.533    198      0      0    231    349    349      0      0    0.0  0.000    151   0.00   0.00   1.00   0.00   0.00   0.00   0.00   1.00   5.31  400.0   0.00      0    151    324.7   0.00   0.00 0.3325   0.044   0.012   0.006   0.004   0.001   0.000   0.000   0.000   0.000   0.000      0      0      0       0       0   6.100  173.065
   15 114    38    37  19.077     1  0.589    217      0      0    263    385    385      0      0    0.0  0.000    168   0.00   0.00   1.00   0.00   0.00   0.00   0.00   1.00   5.21  400.0   0.00      0    168    322.4   0.00   0.00 0.3433   0.045   0.012   0.006   0.004   0.001   0.000   0.000   0.000   0.000   0.000      0      0      0       0       0   9.818  181.549
   15 115    39    38  19.572     1  0.661    242      0      0    292    433    433      0      0    0.0  0.000    191   0.00   0.00   1.00   0.00   0.00   0.00   0.00   1.00   5.13  400.0   0.00      0    191    319.9   0.00   0.00 0.3558   0.047   0.013   0.007   0.005   0.001   0.000   0.000   0.000   0.000   0.000      0      0      0       0       0  11.400  191.435
   15 116    40    39  20.225     1  0.760    277      0      0    338    499    499      0      0    0.0  0.000    222   0.00   0.00   1.00   0.00   0.00   0.00   0.00   1.00   4.98  400.0   0.00      0    222    316.8   0.00   0.00 0.3724   0.048   0.013   0.008   0.005   0.002   0.000   0.000   0.000   0.000   0.000      0      0      0       0       0  15.050  204.506
   15 117    41    40  20.858     1  0.859    311      0      0    397    565    565      0      0    0.0  0.000    253   0.00   0.00   1.00   0.00   0.00   0.00   0.00   1.00   5.00  400.0   0.00      0    253    313.9   0.00   0.00 0.3884   0.051   0.015   0.009   0.006   0.002   0.000   0.000   0.000   0.000   0.000      0      0      0       0       0  14.550  217.164
   15 118    42    41  21.221     1  0.910    327      0      0    426    597    597      0      0    0.0  0.000    270   0.00   0.00   1.00   0.00   0.00   0.00   0.00   1.00   5.04  400.0   0.00      0    270    312.3   0.00   0.00 0.3975   0.054   0.016   0.010   0.007   0.004   0.000   0.000   0.000   0.000   0.000      0      0      0       0       0   8.300  224.421
   15 119    43    42  21.527     1  0.948    339      0      0    446    622    622      0      0    0.0  0.000    282   0.00   0.00   1.00   0.00   0.00   0.00   0.00   1.00   5.00  400.0   0.00      0    282    311.1   0.00   0.00 0.4052   0.056   0.017   0.010   0.008   0.004   0.000   0.000   0.000   0.000   0.000      0      0      0       0       0   6.950  230.533
   15 120    44    43  21.983     1  1.022    363      0      0    490    670    670      0      0    0.0  0.000    306   0.00   0.00   1.00   0.00   0.00   0.00   0.00   1.00   4.94  400.0   0.00      0    306    309.2   0.00   0.00 0.4154   0.056   0.018   0.011   0.008   0.005   0.000   0.000   0.000   0.000   0.000      0      0      0       0       0  10.350  239.669
   15 121    45    44  22.367     1  1.080    382      0      0    520    707    707      0      0    0.0  0.000    325   0.00   0.00   1.00   0.00   0.00   0.00   0.00   1.00   4.92  400.0   0.00      0    325    307.7   0.00   0.00 0.4240   0.056   0.019   0.012   0.009   0.006   0.000   0.000   0.000   0.000   0.000      0      0      0       0       0   8.650  247.340
   15 122    46    45  22.834     1  1.158    408      0      0    566    758    758      0      0    0.0  0.000    350   0.00   0.00   1.00   0.00   0.00   0.00   0.00   1.00   4.81  400.0   0.00      0    350    306.0   0.00   0.00 0.4344   0.056   0.019   0.013   0.010   0.007   0.001   0.000   0.000   0.000   0.000      0      0      0       0       0  10.500  256.688
   15 123    47    46  23.426     1  1.260    441      0      0    596    825    825      0      0    0.0  0.000    384   0.00   0.00   1.00   0.00   0.00   0.00   0.00   1.00   4.58  400.0   0.00      0    384    304.0   0.00   0.00 0.4475   0.056   0.019   0.014   0.011   0.008   0.002   0.000   0.000   0.000   0.000      0      0      0       0       0  13.250  268.512
   15 124    48    47  24.204     1  1.391    484      0      0    663    912    912      0      0    0.0  0.000    427   0.00   0.00   1.00   0.05   0.00   0.00   0.00   1.00   4.35  400.0   0.00      0    427    301.4   0.00   0.00 0.4648   0.056   0.020   0.015   0.012   0.009   0.002   0.000   0.000   0.000   0.000      0      0      0       0       0  17.450  284.089
   15 125    49    48  25.070     1  1.531    531      0      0    698   1006   1006      0      0    0.0  0.000    474   0.00   0.00   1.00   0.12   0.00   0.00   0.00   1.00   4.14  400.0   0.00      0    474    298.8   0.00   0.00 0.4840   0.057   0.021   0.016   0.013   0.011   0.005   0.000   0.000   0.000   0.000      0      0      0       0       0  19.400  301.406
   15 126    50    49  25.587     1  1.609    557      0      0    743   1058   1058      0      0    0.0  0.000    500   0.00   0.00   1.00   0.19   0.00   0.00   0.00   1.00   4.01  400.0   0.00      0    500    297.4   0.00   0.00 0.4954   0.057   0.021   0.016   0.014   0.012   0.006   0.000   0.000   0.000   0.000      0      0      0       0       0  11.550  311.749
   15 127    51    50  26.171     1  1.694    586      0      0    794   1116   1116      0      0    0.0  0.000    529   0.00   0.00   1.00   0.23   0.00   0.00   0.00   1.00   3.91  400.0   0.00      0    529    295.8   0.00   0.00 0.5083   0.058   0.022   0.017   0.014   0.013   0.008   0.000   0.000   0.000   0.000      0      0      0       0       0  13.000  323.420
   15 128    52    51  26.868     1  1.796    621      0      0    855   1185   1185      0      0    0.0  0.000    564   0.00   0.00   1.00   0.25   0.00   0.00   0.00   1.00   3.80  400.0   0.00      0    564    294.1   0.00   0.00 0.5226   0.058   0.023   0.018   0.015   0.013   0.009   0.001   0.000   0.000   0.000      0      0      0       0       0  15.500  337.352
   15 129    53    52  27.507     1  1.887    652      0      0    909   1247   1247      0      0    0.0  0.000    595   0.00   0.00   1.00   0.28   0.00   0.00   0.00   1.00   3.71  400.0   0.00      0    595    292.6   0.00   0.00 0.5357   0.059   0.024   0.019   0.016   0.014   0.010   0.002   0.000   0.000   0.000      0      0      0       0       0  14.200  350.140
   15 130    54    53  28.103     1  1.971    681      0      0    957   1305   1305      0      0    0.0  0.000    624   0.00   0.00   1.00   0.30   0.00   0.00   0.00   1.00   3.63  400.0   0.00      0    624    291.3   0.00   0.00 0.5479   0.060   0.025   0.020   0.017   0.015   0.011   0.003   0.000   0.000   0.000      0      0      0       0       0  13.200  362.056
   15 131    55    54  28.722     1  2.058    711      0      0   1007   1365   1365      0      0    0.0  0.000    654   0.00   0.00   1.00   0.31   0.00   0.00   0.00   1.00   3.54  400.0   0.00      0    654    290.0   0.00   0.00 0.5606   0.061   0.026   0.020   0.018   0.016   0.011   0.004   0.000   0.000   0.000      0      0      0       0       0  13.700  374.450
   15 132    56    55  29.532     1  2.171    750      0      0   1076   1443   1443      0      0    0.0  0.000    693   0.00   0.00   1.00   0.33   0.00   0.00   0.00   1.00   3.40  400.0   0.00      0    693    288.4   0.00   0.00 0.5771   0.062   0.027   0.021   0.018   0.016   0.012   0.005   0.000   0.000   0.000      0      0      0       0       0  17.891  390.635
   15 133    57    56  30.242     2  2.370    819     26      0   1116   1608   1608      0      0    0.0  0.000    762   0.00   0.00   1.00   0.37   0.00   0.00   0.00   1.00   3.16  533.3   0.00      0    762    288.4   0.00   0.00 0.5935   0.063   0.028   0.022   0.020   0.017   0.013   0.007   0.000   0.000   0.000      0      0      0       0       0  17.750    6.694
   15 134    58    57  30.783     2  2.520    871     49      0   1147   1734   1734      0      0    0.0  0.000    814   0.00   0.00   1.00   0.49   0.00   0.00   0.00   1.00   3.01  564.7   0.00      0    814    288.4   0.00   0.00 0.6074   0.063   0.028   0.023   0.020   0.018   0.013   0.008   0.000   0.000   0.000      0      0      0       0       0  15.000   21.694
   15 135    59    58  31.197     2  2.594    897     61      0   1157   1797   1797      0      0    0.0  0.000    840   0.00   0.00   1.00   0.56   0.00   0.00   0.00   1.00   2.96  574.6   0.00      0    840    288.4   0.00   0.00 0.6174   0.063   0.029   0.024   0.021   0.018   0.014   0.009   0.000   0.000   0.000      0      0      0       0       0  11.450   33.144
   15 136    60    59  31.657     2  2.742    948     88      0   1191   1927   1927      0      0    0.0  0.000    891   0.00   0.00   1.00   0.58   0.00   0.00   0.00   1.00   2.83  581.1   0.00      0    891    288.4   0.00   0.00 0.6286   0.063   0.029   0.024   0.021   0.018   0.014   0.009   0.001   0.000   0.000      0      0      0       0       0  12.750   45.894
   15 137    61    60  32.168     2  2.843    983    108      0   1211   2017   2017      0      0    0.0  0.000    926   0.00   0.00   1.00   0.64   0.00   0.00   0.00   1.00   2.75  582.4   0.00      0    926    288.4   0.00   0.00 0.6411   0.063   0.029   0.024   0.021   0.019   0.014   0.009   0.001   0.000   0.000      0      0      0       0       0  14.150   60.044
   15 138    62    61  32.724     2  2.965   1025    135      0   1240   2129   2129      0      0    0.0  0.000    968   0.00   0.00   1.00   0.66   0.00   0.00   0.00   1.00   2.66  580.1   0.00      0    968    288.4   0.00   0.00 0.6547   0.063   0.030   0.024   0.021   0.019   0.015   0.010   0.002   0.000   0.000      0      0      0       0       0  15.400   75.444
   15 139    63    62  33.228     2  3.024   1046    150      0   1248   2184   2184      0      0    0.0  0.000    989   0.00   0.00   1.00   0.71   0.00   0.00   0.00   1.00   2.64  574.9   0.00      0    989    288.4   0.00   0.00 0.6669   0.064   0.030   0.025   0.022   0.019   0.015   0.010   0.003   0.000   0.000      0      0      0       0       0  13.950   89.394
   15 140    64    63  33.530     2  3.062   1059    160      0   1249   2221   2221      0      0    0.0  0.000   1002   0.00   0.00   1.00   0.71   0.00   0.00   0.00   1.00   2.62  571.0   0.00      0   1002    288.4   0.00   0.00 0.6743   0.063   0.030   0.025   0.022   0.019   0.015   0.010   0.004   0.000   0.000      0      0      0       0       0   8.350   97.744
   15 141    65    64  33.882     2  3.117   1078    175      0   1256   2274   2274      0      0    0.0  0.000   1021   0.00   0.00   1.00   0.71   0.00   0.00   0.00   1.00   2.60  565.7   0.00      0   1021    288.4   0.00   0.00 0.6829   0.063   0.030   0.025   0.022   0.019   0.015   0.010   0.004   0.000   0.000      0      0      0       0       0   9.750  107.494
   15 142    66    65  34.237     2  3.199   1106    199      0   1273   2354   2354      0      0    0.0  0.000   1049   0.00   0.00   1.00   0.71   0.00   0.00   0.00   1.00   2.55  560.5   0.00      0   1049    288.4   0.00   0.00 0.6915   0.063   0.030   0.025   0.022   0.019   0.015   0.010   0.004   0.000   0.000      0      0      0       0       0   9.850  117.344
   15 143    67    66  34.660     2  3.262   1128    219      0   1284   2418   2418      0      0    0.0  0.000   1071   0.00   0.00   1.00   0.73   0.00   0.00   0.00   1.00   2.52  553.5   0.00      0   1071    288.4   0.00   0.00 0.7018   0.063   0.030   0.025   0.022   0.020   0.015   0.011   0.005   0.000   0.000      0      0      0       0       0  11.700  129.044
   15 144    68    67  35.099     2  3.288   1146    236      0   1292   2472   2472      0      0    0.0  0.000   1089   0.00   0.00   1.00   0.74   0.00   0.00   0.00   1.00   2.50  545.5   0.00      0   1089    288.4   0.00   0.00 0.7120   0.062   0.030   0.025   0.022   0.020   0.015   0.011   0.005   0.000   0.000      0      0      0       0       0  12.150  141.194
   15 145    69    68  35.624     2  3.326   1167    258      0   1303   2536   2536      0      0    0.0  0.000   1110   0.00   0.00   1.00   0.74   0.00   0.00   0.00   1.00   2.47  534.8   0.00      0   1110    288.4   0.00   0.00 0.7241   0.062   0.030   0.025   0.022   0.020   0.015   0.011   0.005   0.000   0.000      0      0      0       0       0  14.550  155.744
   15 146    70    69  36.043     2  3.351   1184    277      0   1310   2588   2588      0      0    0.0  0.000   1127   0.00   0.00   1.00   0.75   0.00   0.00   0.00   1.00   2.44  526.0   0.00      0   1127    288.4   0.00   0.00 0.7338   0.062   0.030   0.025   0.022   0.020   0.016   0.011   0.006   0.000   0.000      0      0      0       0       0  11.600  167.344
   15 147    71    70  36.377     2  3.387   1202    298      0   1319   2645   2645      0      0    0.0  0.000   1145   0.00   0.00   1.00   0.76   0.00   0.00   0.00   1.00   2.42  519.0   0.00      0   1145    288.4   0.00   0.00 0.7416   0.062   0.030   0.025   0.022   0.020   0.016   0.011   0.006   0.000   0.000      0      0      0       0       0   9.250  176.594
   15 148    72    71  36.807     2  3.451   1228    330      0   1337   2729   2729      0      0    0.0  0.000   1171   0.00   0.00   1.00   0.76   0.00   0.00   0.00   1.00   2.38  510.3   0.00      0   1171    288.4   0.00   0.00 0.7515   0.062   0.030   0.025   0.022   0.020   0.016   0.011   0.006   0.001   0.000      0      0      0       0       0  11.900  188.494
   15 149    73    72  37.370     2  3.497   1248    358      0   1350   2796   2796      0      0    0.0  0.000   1191   0.00   0.00   1.00   0.78   0.00   0.00   0.00   1.00   2.35  498.3   0.00      0   1191    288.4   0.00   0.00 0.7646   0.062   0.031   0.026   0.023   0.020   0.016   0.011   0.006   0.001   0.000      0      0      0       0       0  15.600  204.094
   15 150    74    73  37.910     2  3.532   1264    382      0   1359   2854   2854      0      0    0.0  0.000   1207   0.00   0.00   1.00   0.78   0.00   0.00   0.00   1.00   2.33  486.5   0.00      0   1207    288.4   0.00   0.00 0.7771   0.061   0.031   0.026   0.023   0.020   0.016   0.011   0.006   0.001   0.000      0      0      0       0       0  14.950  219.044
   15 151    75    74  38.466     2  3.576   1283    412      0   1371   2922   2922      0      0    0.0  0.000   1226   0.00   0.00   1.00   0.78   0.00   0.00   0.00   1.00   2.31  474.1   0.00      0   1226    288.4   0.00   0.00 0.7899   0.061   0.031   0.026   0.023   0.020   0.016   0.012   0.006   0.001   0.000      0      0      0       0       0  15.400  234.444
   15 152    76    75  39.152     2  3.618   1301    443      0   1383   2987   2987      0      0    0.0  0.000   1244   0.00   0.00   1.00   0.78   0.00   0.00   0.00   1.00   2.38  458.1   0.00      0   1244    288.4   0.00   0.00 0.8058   0.063   0.031   0.026   0.023   0.020   0.016   0.012   0.006   0.002   0.000      0      0      0       0       0  19.000  253.444
   15 153    77    76  39.865     2  3.550   1327    494      0   1407   3092   3092      0      0    0.0  0.000   1270   0.00   0.00   1.00   0.66   0.00   0.00   0.00   1.00   2.43  440.3   0.00      0   1270    288.4   0.00   0.00 0.8223   0.065   0.031   0.026   0.023   0.020   0.016   0.012   0.007   0.002   0.000      0      0      0       0       0  19.750  273.194
   15 154    78    77  40.597     2  3.542   1363    570      0   1443   3239   3239      0      0    0.0  0.000   1306   0.00   0.00   1.00   0.56   0.00   0.00   0.00   1.00   2.45  421.2   0.00      0   1306    288.4   0.00   0.00 0.8393   0.067   0.031   0.026   0.023   0.020   0.016   0.012   0.007   0.002   0.000      0      0      0       0       0  20.269  293.463
   15 155    79    78  41.306     2  3.583   1405    671      0   1490   3424   3424      0      0    0.0  0.000   1348   0.00   0.00   1.00   0.48   0.00   0.00   0.00   1.00   2.45  402.5   0.00      0   1348    288.4   0.00   0.00 0.8557   0.071   0.031   0.026   0.023   0.020   0.016   0.012   0.007   0.003   0.000      0      0      0       0       0  19.633  313.096
   15 156    80    79  42.085     2  3.650   1448    783      0   1538   3622   3622      0      0    0.0  0.000   1391   0.00   0.00   1.00   0.42   0.00   0.00   0.00   1.00   2.42  400.0   0.00      0   1391    288.4   0.00   0.00 0.8737   0.076   0.031   0.026   0.023   0.020   0.016   0.012   0.007   0.003   0.000      0      0      0       0       0  21.576  334.672
   15 157    81    80  42.851     2  3.711   1485    891      0   1580   3803   3803      0      0    0.0  0.000   1428   0.00   0.00   1.00   0.40   0.00   0.00   0.00   1.00   2.42  400.0   0.00      0   1428    288.4   0.00   0.00 0.8915   0.080   0.031   0.026   0.023   0.021   0.017   0.012   0.007   0.004   0.000      0      0      0       0       0  21.209  355.881
   15 158    82    81  44.153     3  3.637   1485   1098      0   1610   4010   4010      0      0    0.0  0.000   1428   0.00   0.00   1.00   0.30   0.00   0.00   0.00   1.00   2.43  400.0   0.00      0   1428    288.4   0.00   0.00 0.9094   0.084   0.031   0.026   0.023   0.021   0.017   0.012   0.007   0.005   0.000      0      0      0       0       0  21.413   17.294
   15 159    83    82  45.230     3  3.610   1485   1215      0   1618   4127   4127      0      0    0.0  0.000   1428   0.00   0.00   1.00   0.23   0.00   0.00   0.00   1.00   2.43  400.0   0.00      0   1428    288.4   0.00   0.00 0.9218   0.085   0.031   0.026   0.023   0.021   0.017   0.012   0.008   0.005   0.000      0      0      0       0       0  16.150   33.444
   15 160    84    83  46.050     3  3.591   1485   1309      0   1621   4221   4221      0      0    0.0  0.000   1428   0.00   0.00   1.00   0.16   0.00   0.00   0.00   1.00   2.43  400.0   0.00      0   1428    288.4   0.00   0.00 0.9313   0.085   0.031   0.026   0.023   0.021   0.017   0.013   0.008   0.006   0.000      0      0      0       0       0  12.300   45.744
   15 161    85    84  47.030     3  3.572   1485   1442      0   1629   4354   4354      0      0    0.0  0.000   1428   0.00   0.00   1.00   0.05   0.00   0.00   0.00   1.00   2.43  400.0   0.00      0   1428    288.4   0.00   0.00 0.9426   0.084   0.031   0.026   0.023   0.021   0.017   0.013   0.008   0.006   0.000      0      0      0       0       0  14.700   60.444
   15 162    86    85  48.250     3  3.547   1485   1628      0   1645   4540   4540      0      0    0.0  0.000   1428   0.00   0.00   1.00   0.00   0.00   0.00   0.00   1.00   2.43  400.0   0.00      0   1428    288.4   0.00   0.00 0.9567   0.084   0.031   0.026   0.023   0.021   0.017   0.013   0.008   0.006   0.001      0      0      0       0       0  18.300   78.744
   15 163    87    86  49.625     3  3.519   1485   1857      0   1669   4769   4769      0      0    0.0  0.000   1428   0.00   0.00   1.00   0.00   0.00   0.00   0.00   1.00   2.43  400.0   0.00      0   1428    288.4   0.00   0.00 0.9726   0.083   0.031   0.026   0.023   0.021   0.017   0.013   0.008   0.006   0.001      0      0      0       0       0  20.637   99.381
   15 164    88    87  50.965     3  3.492   1485   2055      0   1688   4968   4968      0      0    0.0  0.000   1428   0.00   0.00   1.00   0.00   0.00   0.00   0.00   1.00   2.43  400.0   0.00      0   1428    288.4   0.00   0.00 0.9880   0.083   0.031   0.027   0.024   0.021   0.017   0.013   0.008   0.007   0.001      0      0      0       0       0  20.100  119.481
   15 165    89    88  52.305     3  3.465   1485   2275      0   1710   5188   5188      0      0    0.0  0.000   1428   0.00   0.00   1.00   0.00   0.00   0.00   0.00   1.00   2.43  400.0   0.00      0   1428    288.4   0.00   0.00 1.0035   0.083   0.031   0.027   0.024   0.021   0.017   0.013   0.008   0.007   0.002      0      0      0       0       0  20.100  139.581
   15 166    90    89  53.312     3  3.445   1485   2400      0   1714   5312   5312      0      0    0.0  0.000   1428   0.00   0.00   1.00   0.00   0.00   0.00   0.00   1.00   2.43  400.0   0.00      0   1428    288.4   0.00   0.00 1.0151   0.082   0.032   0.027   0.024   0.021   0.017   0.013   0.009   0.007   0.002      0      0      0       0       0  15.100  154.681
   15 167    91    90  54.325     3  3.424   1485   2600      0   1733   5512   5512      0      0    0.0  0.000   1428   0.00   0.00   1.00   0.00   0.00   0.00   0.00   1.00   2.43  400.0   0.00      0   1428    288.4   0.00   0.00 1.0268   0.082   0.031   0.027   0.024   0.021   0.017   0.013   0.009   0.007   0.003      0      0      0       0       0  15.200  169.881
   15 168    92    91  55.312     3  3.404   1485   2818      0   1754   5731   5731      0      0    0.0  0.000   1428   0.00   0.00   1.00   0.00   0.00   0.00   0.00   1.00   2.43  400.0   0.00      0   1428    288.4   0.00   0.00 1.0382   0.082   0.032   0.027   0.024   0.021   0.017   0.013   0.009   0.007   0.003      0      0      0       0       0  14.800  184.681
   15 169    93    92  56.195     3  3.387   1485   2938      0   1757   5850   5850      0      0    0.0  0.000   1428   0.00   0.00   1.00   0.00   0.00   0.00   0.00   1.00   2.43  400.0   0.00      0   1428    288.4   0.00   0.00 1.0484   0.081   0.032   0.027   0.024   0.021   0.018   0.013   0.009   0.007   0.004      0      0      0       0       0  13.250  197.931
   15 170    94    93  57.075     3  3.369   1485   3107      0   1770   6019   6019      0      0    0.0  0.000   1428   0.00   0.00   1.00   0.00   0.00   0.00   0.00   1.00   2.43  400.0   0.00      0   1428    288.4   0.00   0.00 1.0586   0.081   0.032   0.027   0.024   0.021   0.018   0.013   0.009   0.007   0.004      0      0      0       0       0  13.200  211.131
   15 171    95    94  57.892     3  3.352   1485   3267      0   1780   6180   6180      0      0    0.0  0.000   1428   0.00   0.00   1.00   0.00   0.00   0.00   0.00   1.00   2.43  400.0   0.00      0   1428    288.4   0.00   0.00 1.0680   0.080   0.032   0.027   0.024   0.021   0.018   0.014   0.009   0.007   0.004      0      0      0       0       0  12.250  223.381
   15 172    96    95  58.795     3  3.334   1485   3431      0   1791   6344   6344      0      0    0.0  0.000   1428   0.00   0.00   1.00   0.00   0.00   0.00   0.00   1.00   2.43  400.0   0.00      0   1428    288.4   0.00   0.00 1.0785   0.080   0.032   0.027   0.024   0.022   0.018   0.014   0.009   0.008   0.005      0      0      0       0       0  13.550  236.931
   15 173    97    96  59.985     4  3.334   1485   3596      0   1792   6509   6509      0      0    0.0  0.000   1428   0.00   0.00   1.00   0.00   0.00   0.00   0.00   1.00   2.43  400.0   0.00      0   1428    288.4   0.00   0.00 1.0910   0.079   0.032   0.027   0.024   0.022   0.018   0.014   0.009   0.008   0.005      0      0      0       0       0  16.200   13.131
   15 174    98    97  60.971     4  3.294   1485   3791      0   1795   6703   6703      0      0    0.0  0.000   1428   0.00   0.00   1.00   0.00   0.00   0.00   0.00   1.00   2.43  400.0   0.00      0   1428    288.4   0.00   0.00 1.1011   0.079   0.031   0.027   0.024   0.021   0.018   0.014   0.009   0.008   0.005      0      0      0       0       0  13.150   26.281
   15 175    99    98  62.014     4  3.261   1485   4012      0   1802   6924   6924      0      0    0.0  0.000   1428   0.00   0.00   1.00   0.00   0.00   0.00   0.00   1.00   2.43  400.0   0.00      0   1428    288.4   0.00   0.00 1.1103   0.078   0.031   0.027   0.024   0.021   0.018   0.014   0.009   0.008   0.005      0      0      0       0       0  13.900   40.181
   15 176   100    99  63.052     4  3.227   1485   4233      0   1809   7146   7146      0      0    0.0  0.000   1428   0.00   0.00   1.00   0.00   0.00   0.00   0.00   1.00   2.43  400.0   0.00      0   1428    288.4   0.00   0.00 1.1194   0.078   0.031   0.027   0.024   0.021   0.018   0.014   0.010   0.008   0.006      0      0      0       0       0  13.850   54.031
   15 177   101   100  64.290     4  3.193   1485   4461      0   1816   7374   7374      0      0    0.0  0.000   1428   0.00   0.00   1.00   0.00   0.00   0.00   0.00   1.00   2.43  400.0   0.00      0   1428    288.4   0.00   0.00 1.1303   0.077   0.031   0.027   0.024   0.021   0.018   0.014   0.010   0.008   0.006      0      0      0       0       0  16.500   70.531
   15 178   102   101  65.370     4  3.152   1485   4613      0   1815   7525   7525      0      0    0.0  0.000   1428   0.00   0.00   1.00   0.00   0.00   0.00   0.00   1.00   2.43  400.0   0.00      0   1428    288.4   0.00   0.00 1.1424   0.077   0.031   0.027   0.024   0.022   0.018   0.014   0.010   0.008   0.006      0      0      0       0       0  18.350   88.881
   15 179   103   102  66.114     4  3.107   1485   4841      0   1822   7754   7754      0      0    0.0  0.000   1428   0.00   0.00   1.00   0.00   0.00   0.00   0.00   1.00   2.43  400.0   0.00      0   1428    288.4   0.00   0.00 1.1542   0.076   0.031   0.027   0.024   0.021   0.018   0.014   0.010   0.008   0.006      0      0      0       0       0  17.850  106.731
   15 180   104   103  66.899     4  3.062   1485   5053      0   1827   7966   7966      0      0    0.0  0.000   1428   0.00   0.00   1.00   0.00   0.00   0.00   0.00   1.00   2.43  400.0   0.00      0   1428    288.4   0.00   0.00 1.1666   0.076   0.031   0.027   0.024   0.021   0.018   0.014   0.010   0.008   0.006      0      0      0       0       0  18.850  125.581
   15 181   105   104  67.746     4  3.016   1485   5267      0   1833   8179   8179      0      0    0.0  0.000   1428   0.00   0.00   1.00   0.00   0.00   0.00   0.00   1.00   2.43  400.0   0.00      0   1428    288.4   0.00   0.00 1.1800   0.076   0.031   0.027   0.024   0.021   0.018   0.014   0.010   0.008   0.006      0      0      0       0       0  20.332  145.913
   15 182   106   105  68.614     4  2.966   1485   5488      0   1839   8400   8400      0      0    0.0  0.000   1428   0.00   0.00   1.00   0.00   0.00   0.00   0.00   1.00   2.43  400.0   0.00      0   1428    288.4   0.00   0.00 1.1938   0.075   0.031   0.027   0.024   0.021   0.018   0.014   0.010   0.008   0.006      0      0      0       0       0  20.826  166.740
   15 183   107   106  69.522     4  2.914   1485   5698      0   1844   8610   8610      0      0    0.0  0.000   1428   0.00   0.00   1.00   0.00   0.00   0.00   0.00   1.00   2.43  400.0   0.00      0   1428    288.4   0.00   0.00 1.2082   0.075   0.031   0.027   0.024   0.021   0.018   0.014   0.010   0.008   0.006      0      0      0       0       0  21.791  188.530
   15 184   108   107  70.267     5  2.860   1485   4921    928   1842   7833   8761  15668  15668    5.9  0.106   1428   0.00   0.00   1.00   0.00   0.00   0.00   0.00   1.00   2.21  400.0   0.00      0   1428    288.4   0.00   0.00 1.2227   0.074   0.031   0.027   0.024   0.021   0.018   0.014   0.010   0.008   0.006      0      0      0       0       0  22.022   10.552
   15 185   109   108  70.853     5  2.858   1485   4673   1330   1838   7585   8915  15668  15668    8.5  0.149   1428   0.00   0.00   1.00   0.00   0.00   0.00   0.00   1.00   1.99  400.0   0.00      0   1428    288.4   0.00   0.00 1.2380   0.073   0.031   0.026   0.024   0.021   0.018   0.014   0.010   0.008   0.006      0      0      0       0       0  23.125   33.677
   15 186   110   109  71.454     5  2.851   1485   4401   1748   1830   7314   9062  15668  15668   11.2  0.193   1428   0.00   0.00   1.00   0.00   0.00   0.00   0.00   1.00   1.78  400.0   0.00      0   1428    288.4   0.00   0.00 1.2536   0.073   0.031   0.026   0.024   0.021   0.018   0.014   0.010   0.008   0.006      0      0      0       0       0  23.767   57.444
   15 187   111   110  72.033     5  2.839   1485   4146   2173   1822   7058   9231  15668  15668   13.9  0.235   1428   0.00   0.11   1.00   0.00   0.00   0.00   0.00   1.00   1.61  400.0   0.00      0   1428    288.4   0.00   0.00 1.2687   0.072   0.030   0.026   0.023   0.021   0.017   0.014   0.010   0.008   0.006      0      0      0       0       0  22.850   80.294
   15 188   112   111  72.624     5  2.822   1485   3897   2567   1809   6810   9377  15668  15668   16.4  0.274   1428   0.00   0.01   1.00   0.00   0.00   0.00   0.00   1.00   1.43  400.0   0.00      0   1428    288.4   0.00   0.00 1.2841   0.072   0.030   0.026   0.023   0.021   0.017   0.014   0.010   0.008   0.006      0      0      0       0       0  23.352  103.646
   15 189   113   112  73.064     5  2.800   1485   3739   2886   1794   6651   9538  15668  15668   18.4  0.303   1428   0.00   0.00   1.00   0.00   0.00   0.00   0.00   1.00   1.32  400.0   0.00      0   1428    288.4   0.00   0.00 1.2956   0.072   0.030   0.026   0.023   0.021   0.017   0.014   0.010   0.008   0.006      0      0      0       0       0  17.400  121.046
   15 190   114   113  73.416     5  2.780   1485   3719   3076   1776   6632   9708  15668  15668   19.6  0.317   1428   0.00   0.00   1.00   0.00   0.00   0.00   0.00   1.00   1.23  400.0   0.00      0   1428    288.4   0.00   0.00 1.3048   0.071   0.030   0.026   0.023   0.020   0.017   0.014   0.010   0.008   0.006      0      0      0       0       0  13.900  134.946
   15 191   115   114  73.792     5  2.763   1485   3719   3315   1758   6632   9947  15668  15668   21.2  0.333   1428   0.00   0.03   1.00   0.00   0.00   0.00   0.00   1.00   1.13  400.0   0.00      0   1428    288.4   0.00   0.00 1.3130   0.070   0.029   0.025   0.023   0.020   0.017   0.013   0.010   0.008   0.006      0      0      0       0       0  14.850  149.796
   15 192   116   115  74.252     5  2.743   1485   3719   3518   1741   6632  10150  15668  15668   22.5  0.347   1428   0.00   0.19   1.00   0.00   0.00   0.00   0.00   1.00   1.01  400.0   0.00      0   1428    288.4   0.00   0.00 1.3230   0.070   0.029   0.025   0.022   0.020   0.017   0.013   0.010   0.008   0.006      0      0      0       0       0  18.168  167.964
   15 193   117   116  74.769     5  2.715   1485   3719   3705   1723   6632  10336  15668  15668   23.6  0.358   1428   0.00   0.39   1.00   0.00   0.00   0.00   0.00   1.00   0.89  400.0   0.00      0   1428    288.4   0.00   0.00 1.3342   0.069   0.029   0.025   0.022   0.020   0.016   0.013   0.009   0.008   0.006      0      0      0       0       0  20.400  188.363
   15 194   118   117  75.235     5  2.680   1485   3719   3825   1706   6632  10457  15668  15668   24.4  0.366   1428   0.00   0.47   1.00   0.00   0.00   0.00   0.00   1.00   0.80  400.0   0.00      0   1428    288.4   0.00   0.00 1.3443   0.068   0.029   0.025   0.022   0.020   0.016   0.013   0.009   0.008   0.006      0      0      0       0       0  18.400  206.763
   15 195   119   118  75.756     5  2.645   1485   3719   3970   1689   6632  10602  15668  15668   25.3  0.374   1428   0.00   0.50   1.00   0.00   0.00   0.00   0.00   1.00   0.72  400.0   0.00      0   1428    288.4   0.00   0.00 1.3556   0.068   0.028   0.024   0.022   0.019   0.016   0.013   0.009   0.008   0.006      0      0      0       0       0  20.600  227.363
   15 196   120   119  76.303     5  2.602   1485   3719   4143   1672   6632  10774  15668  15668   26.4  0.384   1428   0.00   0.58   1.00   0.00   0.00   0.00   0.00   1.00   0.66  400.0   0.00      0   1428    288.4   0.00   0.00 1.3675   0.067   0.028   0.024   0.021   0.019   0.016   0.013   0.009   0.008   0.006      0      0      0       0       0  21.614  248.977
   15 197   121   120  76.850     5  2.553   1485   3719   4306   1655   6632  10938  15668  15668   27.5  0.394   1428   0.00   0.66   1.00   0.00   0.00   0.00   0.00   1.00   0.62  400.0   0.00      0   1428    288.4   0.00   0.00 1.3794   0.066   0.028   0.024   0.021   0.019   0.016   0.013   0.009   0.008   0.006      0      0      0       0       0  21.607  270.584
   15 198   122   121  77.431     5  2.499   1485   3719   4424   1639   6632  11055  15668  15668   28.2  0.400   1428   0.10   0.75   1.00   0.00   0.00   0.00   0.00   1.00   0.58  400.0   0.00      0   1428    288.4   0.00   0.00 1.3920   0.066   0.027   0.024   0.021   0.019   0.016   0.012   0.009   0.008   0.006      0      0      0       0       0  22.922  293.506
   15 199   123   122  77.978     5  2.437   1485   3719   4526   1622   6632  11158  15668  15668   28.9  0.406   1428   0.19   0.83   1.00   0.00   0.00   0.00   0.00   1.00   0.56  400.0   0.00      0   1428    288.4   0.00   0.00 1.4039   0.065   0.027   0.023   0.021   0.019   0.016   0.012   0.009   0.008   0.006      0      0      0       0       0  21.614  315.120
   15 200   124   123  78.537     5  2.375   1485   3719   4623   1606   6632  11254  15668  15668   29.5  0.411   1428   0.24   0.86   1.00   0.00   0.00   0.00   0.00   1.00   0.54  400.0   0.00      0   1428    288.4   0.00   0.00 1.4160   0.064   0.027   0.023   0.021   0.019   0.015   0.012   0.009   0.007   0.006      0      0      0       0       0  22.094  337.214
   15 201   125   124  79.119     5  2.304   1485   3719   4721   1590   6632  11353  15668  15668   30.1  0.416   1428   0.27   0.89   1.00   0.00   0.00   0.00   0.00   1.00   0.52  400.0   0.00      0   1428    288.4   0.00   0.00 1.4287   0.064   0.027   0.023   0.020   0.018   0.015   0.012   0.009   0.007   0.006      0      0      0       0       0  23.000  360.214
   15 202   126   125  79.704     5  2.221   1485   3719   4819   1574   6632  11450  15668  15668   30.8  0.421   1428   0.29   0.91   1.00   0.00   0.00   0.00   0.00   1.00   0.50  400.0   0.00      0   1428    288.4   0.00   0.00 1.4414   0.063   0.026   0.023   0.020   0.018   0.015   0.012   0.009   0.007   0.006      0      0      0       0       0  23.089  383.302
   15 203   127   126  80.289     5  2.131   1485   3719   4895   1558   6632  11527  15668  15668   31.2  0.425   1428   0.33   0.94   1.35   0.00   0.00   0.00   0.00   1.00   0.49  400.0   0.00      0   1428    288.4   0.00   0.00 1.4541   0.062   0.026   0.022   0.020   0.018   0.015   0.012   0.009   0.007   0.005      0      0      0       0       0  23.106  406.408
   15 204   128   127  80.831     5  2.015   1485   3719   4959   1543   6632  11591  15668  15668   31.7  0.428   1428   0.37   0.97   1.00   0.00   0.00   0.00   0.00   1.00   0.48  400.0   0.00      0   1428    288.4   0.00   0.00 1.4659   0.062   0.026   0.022   0.020   0.018   0.015   0.012   0.008   0.007   0.005      0      0      0       0       0  21.400  427.808
   15 205   129   128  81.378     5  1.914   1485   3719   5040   1527   6632  11672  15668  15668   32.2  0.432   1428   0.36   0.97   1.00   0.00   0.00   0.00   0.00   1.00   0.46  400.0   0.00      0   1428    288.4   0.00   0.00 1.4778   0.061   0.026   0.022   0.020   0.018   0.015   0.012   0.008   0.007   0.005      0      0      0       0       0  21.614  449.422
   15 206   130   129  81.854     5  1.807   1485   3719   5127   1512   6632  11759  15668  15668   32.7  0.436   1428   0.35   0.96   1.00   0.00   0.00   0.00   0.00   1.00   0.45  400.0   0.00      0   1428    288.4   0.00   0.00 1.4881   0.061   0.025   0.022   0.019   0.017   0.014   0.012   0.008   0.007   0.005      0      0      0       0       0  18.800  468.222
   15 207   131   130  82.247     5  1.711   1485   3738   5211   1497   6650  11861  15668  15668   33.3  0.439   1428   0.33   0.94   1.00   0.00   0.00   0.00   0.00   1.00   0.44  400.0   0.00      0   1428    288.4   0.00   0.00 1.4967   0.060   0.025   0.022   0.019   0.017   0.014   0.011   0.008   0.007   0.005      0      0      0       0       0  15.550  483.772
   15 208   132   131  82.712     5  1.631   1485   3757   5290   1482   6670  11959  15668  15668   33.8  0.442   1428   0.17   0.81   1.00   0.00   0.00   0.00   0.00   1.00   0.43  400.0   0.00      0   1428    288.4   0.00   0.00 1.5067   0.059   0.025   0.021   0.019   0.017   0.014   0.011   0.008   0.007   0.005      0      0      0       0       0  18.350  502.122
   15 209   133   132  83.154     5  1.547   1485   3719   5410   1468   6632  12041  15668  15668   34.5  0.449   1428   0.22   0.85   1.00   0.00   0.00   0.00   0.00   1.00   0.42  400.0   0.00      0   1428    288.4   0.00   0.00 1.5144   0.059   0.025   0.021   0.019   0.017   0.014   0.011   0.008   0.007   0.005      0      0      0       0       0  17.450  519.572
   15 210   134   133  83.533     5  1.461   1485   3719   5472   1453   6632  12104  15668  15668   34.9  0.452   1428   0.27   0.89   1.00   0.00   0.00   0.00   0.00   1.00   0.41  400.0   0.00      0   1428    288.4   0.00   0.00 1.5210   0.058   0.024   0.021   0.019   0.017   0.014   0.011   0.008   0.007   0.005      0      0      0       0       0  15.000  534.572
   15 211   135   134  83.904     5  1.382   1485   3719   5552   1439   6632  12183  15668  15668   35.4  0.456   1428   0.30   0.91   1.00   0.00   0.00   0.00   0.00   1.00   0.40  400.0   0.00      0   1428    288.4   0.00   0.00 1.5275   0.058   0.024   0.021   0.018   0.017   0.014   0.011   0.008   0.007   0.005      0      0      0       0       0  14.650  549.222
   15 212   136   135  84.320     5  1.299   1485   3719   5637   1424   6632  12269  15668  15668   36.0  0.459   1428   0.29   0.91   1.00   0.00   0.00   0.00   0.00   1.00   0.39  400.0   0.00      0   1428    288.4   0.00   0.00 1.5347   0.057   0.024   0.020   0.018   0.016   0.014   0.011   0.008   0.007   0.005      0      0      0       0       0  16.400  565.622
   15 213   137   136  84.749     5  1.204   1485   3719   5683   1410   6632  12315  15668  15668   36.3  0.461   1428   0.28   0.90   1.00   0.00   0.00   0.00   0.00   1.00   0.38  400.0   0.00      0   1428    288.4   0.00   0.00 1.5421   0.056   0.024   0.020   0.018   0.016   0.013   0.011   0.008   0.007   0.005      0      0      0       0       0  16.950  582.572
   15 214   138   137  85.230     5  1.105   1485   3719   5745   1396   6632  12377  15668  15668   36.7  0.464   1428   0.27   0.89   1.00   0.00   0.00   0.00   0.00   1.00   0.37  400.0   0.00      0   1428    288.4   0.00   0.00 1.5505   0.056   0.023   0.020   0.018   0.016   0.013   0.011   0.008   0.006   0.005      0      0      0       0       0  19.000  601.572
   15 215   139   138  85.726     5  0.992   1485   3719   5812   1382   6632  12443  15668  15668   37.1  0.467   1428   0.26   0.88   1.00   0.04   0.00   0.00   0.00   1.00   0.36  400.0   0.00      0   1428    288.4   0.00   0.00 1.5591   0.055   0.023   0.020   0.018   0.016   0.013   0.011   0.008   0.006   0.005      0      0      0       0       0  19.595  621.168
   15 216   140   139  86.259     5  0.872   1485   3719   5859   1368   6632  12490  15668  15668   37.4  0.469   1428   0.25   0.87   1.52   0.08   0.00   0.00   0.00   1.00   0.35  400.0   0.00      0   1428    288.4   0.00   0.00 1.5684   0.055   0.023   0.020   0.018   0.016   0.013   0.010   0.008   0.006   0.005      0      0      0       0       0  21.046  642.213
   15 217   141   140  86.797     5  0.684   1485   3719   5903   1354   6632  12535  15668  15668   37.7  0.471   1428   0.23   0.86   1.04   0.13   0.00   0.00   0.00   1.00   0.34  400.0   0.00      0   1428    288.4   0.00   0.00 1.5777   0.054   0.023   0.019   0.017   0.016   0.013   0.010   0.007   0.006   0.005      0      0      0       0       0  21.283  663.497
   15 218   142   141  87.354     5  0.549   1485   3719   5936   1341   6632  12567  15668  15668   37.9  0.472   1428   0.22   0.85   2.10   0.17   0.00   0.00   0.00   1.00   0.33  400.0   0.00      0   1428    288.4   0.00   0.00 1.5874   0.054   0.022   0.019   0.017   0.015   0.013   0.010   0.007   0.006   0.005      0      0      0       0       0  21.984  685.481
   15 219   143   142  87.929     5  0.259   1485   3719   5951   1327   6632  12582  15668  15668   38.0  0.473   1428   0.21   0.84   2.55   0.21   0.00   0.00   0.00   1.00   0.32  400.0   0.00      0   1428    288.4   0.00   0.00 1.5974   0.053   0.022   0.019   0.017   0.015   0.013   0.010   0.007   0.006   0.005      0      0      0       0       0  22.695  708.176
   15 220   144   143  88.513     5  0.000   1485   3720   5951   1314   6632  12583  15668  15668   38.0  0.473   1428   0.20   0.83   2.42   0.20   0.00   0.00   0.00   1.00   0.32  400.0   0.00      0   1428    288.4   0.00   0.00 1.6076   0.053   0.022   0.019   0.017   0.015   0.013   0.010   0.007   0.006   0.005      0      0      0       0       0  23.100  731.276
   15 221   145   144  89.099     5  0.000   1485   3720   5951   1301   6633  12583  15668  15668   38.0  0.473   1428   0.19   0.82   1.94   0.04   0.00   0.00   0.00   1.00   0.32  400.0   0.00      0   1428    288.4   0.00   0.00 1.6178   0.052   0.022   0.019   0.017   0.015   0.012   0.010   0.007   0.006   0.005      0      0      0       0       0  23.151  754.427
   15 222   146   145  89.688     5  0.000   1485   3720   5951   1288   6633  12584  15668  15668   38.0  0.473   1428   0.17   0.81   1.00   0.00   0.00   0.00   0.00   1.00   0.32  400.0   0.00      0   1428    288.4   0.00   0.00 1.6280   0.052   0.022   0.019   0.017   0.015   0.012   0.010   0.007   0.006   0.005      0      0      0       0       0  23.244  777.671
   15 223   147   146  90.000     6  0.000   1485   3720   5951   1275   6633  12584  15668  15668   38.0  0.473   1428   0.17   0.81   1.55   0.00   0.00   0.00   0.00   1.00   0.32  400.0   0.00      0   1428    288.4   0.00   0.00 1.6280   0.051   0.021   0.018   0.016   0.015   0.012   0.010   0.007   0.006   0.004      0      0      0       0       0  22.984   10.655
   15 224   148   147  90.000     7  0.000   1485   3720   5951   1275   6633  12584  15668  15668   38.0  0.473   1428   0.17   0.81   1.55   0.00   0.00   0.00   0.00   1.00   0.32  400.0   0.00      0   1428    288.4   0.00   0.00 1.6280   0.051   0.021   0.018   0.016   0.015   0.012   0.010   0.007   0.006   0.004      0      0      0       0       0  22.374    7.650
   15 225   149   148  90.000     7  0.000   1485   3720   5951   1275   6633  12584  15668  15668   38.0  0.473   1428   0.17   0.81   1.55   0.00   0.00   0.00   0.00   1.00   0.32  400.0   0.00      0   1428    288.4   0.00   0.00 1.6280   0.051   0.021   0.018   0.016   0.015   0.012   0.010   0.007   0.006   0.004      0      0      0       0       0  22.374    7.650
   15 226   150   149  90.000     7  0.000   1485   3720   5951   1275   6633  12584  15668  15668   38.0  0.473   1428   0.17   0.81   1.55   0.00   0.00   0.00   0.00   1.00   0.32  400.0   0.00      0   1428    288.4   0.00   0.00 1.6280   0.051   0.021   0.018   0.016   0.015   0.012   0.010   0.007   0.006   0.004      0      0      0       0       0  22.374    7.650
   15 227   151   150  90.000     7  0.000   1485   3720   5951   1275   6633  12584  15668  15668   38.0  0.473   1428   0.17   0.81   1.55   0.00   0.00   0.00   0.00   1.00   0.32  400.0   0.00      0   1428    288.4   0.00   0.00 1.6280   0.051   0.021   0.018   0.016   0.015   0.012   0.010   0.007   0.006   0.004      0      0      0       0       0  22.374    7.650
   15 228   152   151  90.000     7  0.000   1485   3720   5951   1275   6633  12584  15668  15668   38.0  0.473   1428   0.17   0.81   1.55   0.00   0.00   0.00   0.00   1.00   0.32  400.0   0.00      0   1428    288.4   0.00   0.00 1.6280   0.051   0.021   0.018   0.016   0.015   0.012   0.010   0.007   0.006   0.004      0      0      0       0       0  22.374    7.650
   15 229   153   152  90.000     7  0.000   1485   3720   5951   1275   6633  12584  15668  15668   38.0  0.473   1428   0.17   0.81   1.55   0.00   0.00   0.00   0.00   1.00   0.32  400.0   0.00      0   1428    288.4   0.00   0.00 1.6280   0.051   0.021   0.018   0.016   0.015   0.012   0.010   0.007   0.006   0.004      0      0      0       0       0  22.374    7.650
   15 230   154   153  90.000     7  0.000   1485   3720   5951   1275   6633  12584  15668  15668   38.0  0.473   1428   0.17   0.81   1.55   0.00   0.00   0.00   0.00   1.00   0.32  400.0   0.00      0   1428    288.4   0.00   0.00 1.6280   0.051   0.021   0.018   0.016   0.015   0.012   0.010   0.007   0.006   0.004      0      0      0       0       0  22.374    7.650
   15 231   155   154  90.000     7  0.000   1485   3720   5951   1275   6633  12584  15668  15668   38.0  0.473   1428   0.17   0.81   1.55   0.00   0.00   0.00   0.00   1.00   0.32  400.0   0.00      0   1428    288.4   0.00   0.00 1.6280   0.051   0.021   0.018   0.016   0.015   0.012   0.010   0.007   0.006   0.004      0      0      0       0       0  22.374    7.650
   15 232   156   155  90.000     7  0.000   1485   3720   5951   1275   6633  12584  15668  15668   38.0  0.473   1428   0.17   0.81   1.55   0.00   0.00   0.00   0.00   1.00   0.32  400.0   0.00      0   1428    288.4   0.00   0.00 1.6280   0.051   0.021   0.018   0.016   0.015   0.012   0.010   0.007   0.006   0.004      0      0      0       0       0  22.374    7.650
   15 233   157   156  90.000     7  0.000   1485   3720   5951   1275   6633  12584  15668  15668   38.0  0.473   1428   0.17   0.81   1.55   0.00   0.00   0.00   0.00   1.00   0.32  400.0   0.00      0   1428    288.4   0.00   0.00 1.6280   0.051   0.021   0.018   0.016   0.015   0.012   0.010   0.007   0.006   0.004      0      0      0       0       0  22.374    7.650
   15 234   158   157  90.000     7  0.000   1485   3720   5951   1275   6633  12584  15668  15668   38.0  0.473   1428   0.17   0.81   1.55   0.00   0.00   0.00   0.00   1.00   0.32  400.0   0.00      0   1428    288.4   0.00   0.00 1.6280   0.051   0.021   0.018   0.016   0.015   0.012   0.010   0.007   0.006   0.004      0      0      0       0       0  22.374    7.650
   15 235   159   158  90.000     7  0.000   1485   3720   5951   1275   6633  12584  15668  15668   38.0  0.473   1428   0.17   0.81   1.55   0.00   0.00   0.00   0.00   1.00   0.32  400.0   0.00      0   1428    288.4   0.00   0.00 1.6280   0.051   0.021   0.018   0.016   0.015   0.012   0.010   0.007   0.006   0.004      0      0      0       0       0  22.374    7.650
   15 236   160   159  90.000     7  0.000   1485   3720   5951   1275   6633  12584  15668  15668   38.0  0.473   1428   0.17   0.81   1.55   0.00   0.00   0.00   0.00   1.00   0.32  400.0   0.00      0   1428    288.4   0.00   0.00 1.6280   0.051   0.021   0.018   0.016   0.015   0.012   0.010   0.007   0.006   0.004      0      0      0       0       0  22.374    7.650
   15 237   161   160  90.000     7  0.000   1485   3720   5951   1275   6633  12584  15668  15668   38.0  0.473   1428   0.17   0.81   1.55   0.00   0.00   0.00   0.00   1.00   0.32  400.0   0.00      0   1428    288.4   0.00   0.00 1.6280   0.051   0.021   0.018   0.016   0.015   0.012   0.010   0.007   0.006   0.004      0      0      0       0       0  22.374    7.650

*DSSAT Cropping System Model Ver. 4.8.5.000 -release  MAR 01, 2026 09:34:20

*RUN   2        : 2                         WHAPS048 TUDU1501    2
 MODEL          : WHAPS048 - Wheat
 EXPERIMENT     : TUDU1501 WH
 DATA PATH      :
 TREATMENT  2   : 2                         WHAPS048
  
!                                                                                                                                                                                                                                             Root Dens. (cm/cm3) by soil depth (cm):
!                                                                                                                                                                                                                                             0-5    5-15   15-20   20-30   30-40   40-50   50-60   60-70   70-90  90-210
@YEAR DOY   DAS   DAP    DCCD  GSTD   LAID   LWAD   SWAD   GWAD   RWAD   VWAD   CWAD   G#AD   G#AD2  GWGD   HIAD   SHAD   WSPD   WSGD   SLFT   NSTD   EWSD  PST1A  PST2A   KSTD   LN%D   TPSM   HIPD   PWDD   PWTD     SLAD   CHTD   CWID   RDPD    RL1D    RL2D    RL3D    RL4D    RL5D    RL6D    RL7D    RL8D    RL9D   RL10D   CDAD   LDAD   SDAD   SNW0C   SNW1C    DTTD   SUMDTT
   15 077     1     0   0.000     8  0.000      0      0      0      0      0      0      0      0    0.0  0.000      0   0.00   0.00   0.00   0.00   0.00   0.00   0.00   1.00   0.00    0.0   0.00      0      0      0.0   0.00   0.00 0.0250   0.000   0.000   0.000   0.000   0.000   0.000   0.000   0.000   0.000   0.000      0      0      0       0       0   7.650    0.000
   15 078     2     1   0.000     8  0.000      0      0      0      0      0      0      0      0    0.0  0.000      0   0.00   0.00   0.00   0.00   0.00   0.00   0.00   1.00   0.00    0.0   0.00      0      0      0.0   0.00   0.00 0.0250   0.000   0.000   0.000   0.000   0.000   0.000   0.000   0.000   0.000   0.000      0      0      0       0       0   7.398    7.398
   15 079     3     2   1.008     9  0.000      0      0      0      0      0      0      0      0    0.0  0.000      0   0.00   0.00   0.00   0.00   0.00   0.00   0.00   1.00   0.00    0.0   0.00      0      0      0.0   0.00   0.00 0.0250   0.000   0.000   0.000   0.000   0.000   0.000   0.000   0.000   0.000   0.000      0      0      0       0       0   6.604    6.604
   15 080     4     3   2.023     9  0.000      0      0      0      0      0      0      0      0    0.0  0.000      0   0.00   0.00   0.00   0.00   0.00   0.00   0.00   1.00   0.00    0.0   0.00      0      0      0.0   0.00   0.00 0.0316   0.000   0.000   0.000   0.000   0.000   0.000   0.000   0.000   0.000   0.000      0      0      0       0       0   6.650   13.254
   15 081     5     4   2.657     9  0.000      0      0      0      0      0      0      0      0    0.0  0.000      0   0.00   0.00   0.00   0.00   0.00   0.00   0.00   1.00   0.00    0.0   0.00      0      0      0.0   0.00   0.00 0.0383   0.000   0.000   0.000   0.000   0.000   0.000   0.000   0.000   0.000   0.000      0      0      0       0       0   4.150   17.404
   15 082     6     5   3.241     9  0.000      0      0      0      0      0      0      0      0    0.0  0.000      0   0.00   0.00   0.00   0.00   0.00   0.00   0.00   1.00   0.00    0.0   0.00      0      0      0.0   0.00   0.00 0.0424   0.000   0.000   0.000   0.000   0.000   0.000   0.000   0.000   0.000   0.000      0      0      0       0       0   3.828   21.232
   15 083     7     6   4.432     9  0.000      0      0      0      0      0      0      0      0    0.0  0.000      0   0.00   0.00   0.00   0.00   0.00   0.00   0.00   1.00   0.00    0.0   0.00      0      0      0.0   0.00   0.00 0.0462   0.000   0.000   0.000   0.000   0.000   0.000   0.000   0.000   0.000   0.000      0      0      0       0       0   7.795   29.027
   15 084     8     7   5.798     9  0.000      0      0      0      0      0      0      0      0    0.0  0.000      0   0.00   0.00   0.00   0.00   0.00   0.00   0.00   1.00   0.00    0.0   0.00      0      0      0.0   0.00   0.00 0.0500   0.000   0.000   0.000   0.000   0.000   0.000   0.000   0.000   0.000   0.000      0      0      0       0       0   8.950   37.977
   15 085     9     8   6.760     9  0.000      0      0      0      0      0      0      0      0    0.0  0.000      0   0.00   0.00   0.00   0.00   0.00   0.00   0.00   1.00   0.00    0.0   0.00      0      0      0.0   0.00   0.00 0.0500   0.000   0.000   0.000   0.000   0.000   0.000   0.000   0.000   0.000   0.000      0      0      0       0       0   6.300   44.277
   15 086    10     9   7.745     9  0.000      0      0      0      0      0      0      0      0    0.0  0.000      0   0.00   0.00   0.00   0.00   0.00   0.00   0.00   1.00   0.00    0.0   0.00      0      0      0.0   0.00   0.00 0.0500   0.000   0.000   0.000   0.000   0.000   0.000   0.000   0.000   0.000   0.000      0      0      0       0       0   6.450   50.727
   15 087    11    10   8.722     9  0.000      0      0      0      0      0      0      0      0    0.0  0.000      0   0.00   0.00   0.00   0.00   0.00   0.00   0.00   1.00   0.00    0.0   0.00      0      0      0.0   0.00   0.00 0.0500   0.000   0.000   0.000   0.000   0.000   0.000   0.000   0.000   0.000   0.000      0      0      0       0       0   6.400   57.127
   15 088    12    11  10.056     1  0.018     12      0      0     24     12     12      0      0    0.0  0.000      0   0.00   0.00   1.00   0.00   0.00   0.00   0.00   1.00   5.07  400.0   0.00      0      0    399.3   0.00   0.00 0.0636   0.041   0.006   0.000   0.000   0.000   0.000   0.000   0.000   0.000   0.000      0      0      0       0       0   9.500    1.127
   15 089    13    12  10.311     1  0.020     13      0      0     24     15     15      0      0    0.0  0.000      1   0.00   0.00   1.00   0.00   0.00   0.00   0.00   1.00   5.49  400.0   0.00      0      1    396.0   0.00   0.00 0.0731   0.040   0.006   0.000   0.000   0.000   0.000   0.000   0.000   0.000   0.000      0      0      0       0       0   6.650    6.218
   15 090    14    13  10.609     1  0.023     16      0      0     25     19     19      0      0    0.0  0.000      2   0.00   0.00   1.00   0.00   0.00   0.00   0.00   1.00   5.15  400.0   0.00      0      2    392.3   0.00   0.00 0.0842   0.040   0.006   0.000   0.000   0.000   0.000   0.000   0.000   0.000   0.000      0      0      0       0       0   7.750   12.186
   15 091    15    14  10.739     1  0.026     17      0      0     26     20     20      0      0    0.0  0.000      2   0.00   0.00   1.00   0.00   0.00   0.00   0.00   1.00   6.02  400.0   0.00      0      2    390.7   0.00   0.00 0.0890   0.040   0.006   0.000   0.000   0.000   0.000   0.000   0.000   0.000   0.000      0      0      0       0       0   3.350   14.786
   15 092    16    15  10.861     1  0.028     18      0      0     26     21     21      0      0    0.0  0.000      3   0.00   0.00   1.00   0.00   0.00   0.00   0.00   1.00   6.03  400.0   0.00      0      3    389.3   0.00   0.00 0.0934   0.039   0.006   0.000   0.000   0.000   0.000   0.000   0.000   0.000   0.000      0      0      0       0       0   3.100   17.210
   15 093    17    16  11.069     1  0.033     19      0      0     27     24     24      0      0    0.0  0.000      4   0.00   0.00   1.00   0.00   0.00   0.00   0.00   1.00   5.72  400.0   0.00      0      4    386.8   0.00   0.00 0.1010   0.039   0.006   0.000   0.000   0.000   0.000   0.000   0.000   0.000   0.000      0      0      0       0       0   5.286   21.370
   15 094    18    17  11.211     1  0.036     20      0      0     27     26     26      0      0    0.0  0.000      5   0.00   0.00   1.00   0.00   0.00   0.00   0.00   1.00   5.90  400.0   0.00      0      5    385.2   0.00   0.00 0.1061   0.039   0.006   0.000   0.000   0.000   0.000   0.000   0.000   0.000   0.000      0      0      0       0       0   3.600   24.226
   15 095    19    18  11.357     1  0.039     21      0      0     28     27     27      0      0    0.0  0.000      6   0.00   0.00   1.00   0.00   0.00   0.00   0.00   1.00   5.97  400.0   0.00      0      6    383.5   0.00   0.00 0.1113   0.038   0.006   0.000   0.000   0.000   0.000   0.000   0.000   0.000   0.000      0      0      0       0       0   3.645   27.136
   15 096    20    19  11.483     1  0.040     21      0      0     29     28     28      0      0    0.0  0.000      6   0.00   0.00   1.00   0.00   0.00   0.00   0.00   1.00   6.02  400.0   0.00      0      6    382.1   0.00   0.00 0.1158   0.038   0.006   0.000   0.000   0.000   0.000   0.000   0.000   0.000   0.000      0      0      0       0       0   3.134   29.652
   15 097    21    20  11.652     1  0.044     22      0      0     31     30     30      0      0    0.0  0.000      7   0.00   0.00   1.00   0.00   0.00   0.00   0.00   1.00   5.85  400.0   0.00      0      7    380.2   0.00   0.00 0.1218   0.038   0.006   0.000   0.000   0.000   0.000   0.000   0.000   0.000   0.000      0      0      0       0       0   4.189   33.034
   15 098    22    21  11.961     1  0.054     27      0      0     33     37     37      0      0    0.0  0.000     10   0.00   0.00   1.00   0.00   0.00   0.00   0.00   1.00   5.08  400.0   0.00      0     10    376.9   0.00   0.00 0.1327   0.038   0.006   0.000   0.000   0.000   0.000   0.000   0.000   0.000   0.000      0      0      0       0       0   7.619   39.220
   15 099    23    22  12.377     1  0.069     33      0      0     36     47     47      0      0    0.0  0.000     14   0.00   0.00   1.00   0.31   0.00   0.00   0.00   1.00   4.92  400.0   0.00      0     14    372.5   0.00   0.00 0.1473   0.038   0.006   0.000   0.000   0.000   0.000   0.000   0.000   0.000   0.000      0      0      0       0       0  10.200   47.538
   15 100    24    23  12.841     1  0.087     41      0      0     40     60     60      0      0    0.0  0.000     19   0.00   0.00   1.00   0.34   0.00   0.00   0.00   1.00   4.91  400.0   0.00      0     19    367.8   0.00   0.00 0.1635   0.038   0.006   0.000   0.000   0.000   0.000   0.000   0.000   0.000   0.000      0      0      0       0       0  11.350   56.827
   15 101    25    24  13.322     1  0.104     49      0      0     43     73     73      0      0    0.0  0.000     24   0.00   0.00   1.00   0.34   0.00   0.00   0.00   1.00   4.91  400.0   0.00      0     24    363.3   0.00   0.00 0.1789   0.038   0.006   0.000   0.000   0.000   0.000   0.000   0.000   0.000   0.000      0      0      0       0       0  11.700   66.435
   15 102    26    25  13.828     1  0.127     59      0      0     48     90     90      0      0    0.0  0.000     30   0.00   0.00   1.00   0.29   0.00   0.00   0.00   1.00   4.85  400.0   0.00      0     30    358.6   0.00   0.00 0.1952   0.038   0.006   0.000   0.000   0.000   0.000   0.000   0.000   0.000   0.000      0      0      0       0       0  12.300   76.568
   15 103    27    26  14.318     1  0.153     70      0      0     54    108    108      0      0    0.0  0.000     37   0.00   0.00   1.00   0.30   0.00   0.00   0.00   1.00   4.73  400.0   0.00      0     37    354.4   0.00   0.00 0.2108   0.038   0.006   0.001   0.000   0.000   0.000   0.000   0.000   0.000   0.000      0      0      0       0       0  11.850   86.362
   15 104    28    27  14.820     1  0.190     82      0      0     64    130    130      0      0    0.0  0.000     48   0.00   0.00   1.00   0.31   0.00   0.00   0.00   1.00   4.36  400.0   0.00      0     48    350.3   0.00   0.00 0.2255   0.038   0.006   0.001   0.000   0.000   0.000   0.000   0.000   0.000   0.000      0      0      0       0       0  12.100   96.395
   15 105    29    28  15.418     1  0.227     94      0      0     77    153    153      0      0    0.0  0.000     59   0.00   0.00   1.00   0.44   0.00   0.00   0.00   1.00   3.99  400.0   0.00      0     59    345.6   0.00   0.00 0.2429   0.038   0.006   0.002   0.000   0.000   0.000   0.000   0.000   0.000   0.000      0      0      0       0       0  14.400  108.358
   15 106    30    29  16.071     1  0.258    105      0      0     84    173    173      0      0    0.0  0.000     68   0.00   0.00   1.00   0.55   0.00   0.00   0.00   1.00   3.76  400.0   0.00      0     68    340.8   0.00   0.00 0.2619   0.038   0.007   0.003   0.001   0.000   0.000   0.000   0.000   0.000   0.000      0      0      0       0       0  15.700  121.418
   15 107    31    30  16.524     1  0.278    112      0      0     89    186    186      0      0    0.0  0.000     73   0.00   0.00   1.00   0.61   0.00   0.00   0.00   1.00   5.19  400.0   0.00      0     73    337.7   0.00   0.00 0.2750   0.038   0.007   0.003   0.001   0.000   0.000   0.000   0.000   0.000   0.000      0      0      0       0       0  10.850  130.478
   15 108    32    31  16.755     1  0.296    118      0      0     99    198    198      0      0    0.0  0.000     79   0.00   0.00   1.00   0.09   0.00   0.00   0.00   1.00   5.58  400.0   0.00      0     79    336.2   0.00   0.00 0.2817   0.038   0.007   0.003   0.001   0.000   0.000   0.000   0.000   0.000   0.000      0      0      0       0       0   5.500  135.101
   15 109    33    32  17.068     1  0.325    128      0      0    115    216    216      0      0    0.0  0.000     88   0.00   0.00   1.00   0.00   0.00   0.00   0.00   1.00   5.52  400.0   0.00      0     88    334.1   0.00   0.00 0.2906   0.038   0.008   0.003   0.002   0.000   0.000   0.000   0.000   0.000   0.000      0      0      0       0       0   7.410  141.365
   15 110    34    33  17.458     1  0.370    143      0      0    141    244    244      0      0    0.0  0.000    101   0.00   0.00   1.00   0.00   0.00   0.00   0.00   1.00   5.42  400.0   0.00      0    101    331.7   0.00   0.00 0.3017   0.039   0.008   0.004   0.002   0.000   0.000   0.000   0.000   0.000   0.000      0      0      0       0       0   9.170  149.152
   15 111    35    34  17.912     1  0.431    163      0      0    176    283    283      0      0    0.0  0.000    120   0.00   0.00   1.00   0.00   0.00   0.00   0.00   1.00   5.33  400.0   0.00      0    120    328.9   0.00   0.00 0.3134   0.040   0.009   0.004   0.002   0.000   0.000   0.000   0.000   0.000   0.000      0      0      0       0       0  10.650  158.232
   15 112    36    35  18.391     1  0.497    186      0      0    215    326    326      0      0    0.0  0.000    140   0.00   0.00   1.00   0.00   0.00   0.00   0.00   1.00   5.27  400.0   0.00      0    140    326.2   0.00   0.00 0.3258   0.042   0.010   0.005   0.003   0.000   0.000   0.000   0.000   0.000   0.000      0      0      0       0       0  11.200  167.815
   15 113    37    36  18.653     1  0.523    195      0      0    229    343    343      0      0    0.0  0.000    148   0.00   0.00   1.00   0.00   0.00   0.00   0.00   1.00   5.31  400.0   0.00      0    148    324.7   0.00   0.00 0.3325   0.044   0.012   0.006   0.004   0.001   0.000   0.000   0.000   0.000   0.000      0      0      0       0       0   6.100  173.065
   15 114    38    37  19.077     1  0.578    214      0      0    261    379    379      0      0    0.0  0.000    165   0.00   0.00   1.00   0.00   0.00   0.00   0.00   1.00   5.21  400.0   0.00      0    165    322.4   0.00   0.00 0.3433   0.044   0.012   0.007   0.004   0.001   0.000   0.000   0.000   0.000   0.000      0      0      0       0       0   9.818  181.549
   15 115    39    38  19.572     1  0.650    239      0      0    289    427    427      0      0    0.0  0.000    188   0.00   0.00   1.00   0.00   0.00   0.00   0.00   1.00   5.13  400.0   0.00      0    188    319.9   0.00   0.00 0.3558   0.046   0.013   0.007   0.005   0.001   0.000   0.000   0.000   0.000   0.000      0      0      0       0       0  11.400  191.435
   15 116    40    39  20.225     1  0.750    274      0      0    333    493    493      0      0    0.0  0.000    219   0.00   0.00   1.00   0.00   0.00   0.00   0.00   1.00   4.99  400.0   0.00      0    219    316.8   0.00   0.00 0.3724   0.047   0.014   0.008   0.005   0.001   0.000   0.000   0.000   0.000   0.000      0      0      0       0       0  15.050  204.506
   15 117    41    40  20.858     1  0.849    308      0      0    393    559    559      0      0    0.0  0.000    250   0.00   0.00   1.00   0.00   0.00   0.00   0.00   1.00   5.00  400.0   0.00      0    250    313.9   0.00   0.00 0.3884   0.050   0.015   0.009   0.006   0.002   0.000   0.000   0.000   0.000   0.000      0      0      0       0       0  14.550  217.164
   15 118    42    41  21.221     1  0.899    324      0      0    422    591    591      0      0    0.0  0.000    267   0.00   0.00   1.00   0.00   0.00   0.00   0.00   1.00   5.04  400.0   0.00      0    267    312.3   0.00   0.00 0.3975   0.053   0.017   0.010   0.007   0.003   0.000   0.000   0.000   0.000   0.000      0      0      0       0       0   8.300  224.421
   15 119    43    42  21.527     1  0.937    336      0      0    442    616    616      0      0    0.0  0.000    279   0.00   0.00   1.00   0.00   0.00   0.00   0.00   1.00   5.00  400.0   0.00      0    279    311.1   0.00   0.00 0.4052   0.054   0.018   0.010   0.007   0.004   0.000   0.000   0.000   0.000   0.000      0      0      0       0       0   6.950  230.533
   15 120    44    43  21.983     1  1.012    360      0      0    486    664    664      0      0    0.0  0.000    303   0.00   0.00   1.00   0.00   0.00   0.00   0.00   1.00   4.95  400.0   0.00      0    303    309.2   0.00   0.00 0.4154   0.054   0.019   0.011   0.008   0.005   0.000   0.000   0.000   0.000   0.000      0      0      0       0       0  10.350  239.669
[...]
   15 185   109   108  70.853     5  1.078    671   2439    689    940   3723   4412   8118   8118    8.5  0.156    613   0.00   0.00   1.11   0.00   0.00   0.00   0.00   1.00   1.63  400.0   0.00      0    613    288.4   0.00   0.00 1.2380   0.031   0.016   0.014   0.013   0.012   0.009   0.007   0.006   0.005   0.004      0      0      0       0       0  23.125   33.677
   15 186   110   109  71.454     5  1.075    671   2306    906    939   3590   4496   8118   8118   11.2  0.201    613   0.00   0.00   1.31   0.00   0.00   0.00   0.00   1.00   1.37  400.0   0.00      0    613    288.4   0.00   0.00 1.2536   0.030   0.016   0.014   0.013   0.012   0.009   0.007   0.006   0.005   0.004      0      0      0       0       0  23.767   57.444
   15 187   111   110  72.033     5  1.069    671   2182   1126    938   3466   4592   8118   8118   13.9  0.245    613   0.00   0.00   1.00   0.00   0.00   0.00   0.00   1.00   1.18  400.0   0.00      0    613    288.4   0.00   0.00 1.2687   0.030   0.016   0.014   0.013   0.012   0.009   0.007   0.006   0.005   0.004      0      0      0       0       0  22.850   80.294
   15 188   112   111  72.624     5  1.063    671   2060   1330    934   3344   4674   8118   8118   16.4  0.285    613   0.00   0.00   1.28   0.00   0.00   0.00   0.00   1.00   0.99  400.0   0.00      0    613    288.4   0.00   0.00 1.2841   0.030   0.016   0.014   0.013   0.012   0.009   0.007   0.006   0.005   0.004      0      0      0       0       0  23.352  103.646
   15 189   113   112  73.064     5  1.052    671   1984   1495    928   3268   4764   8118   8118   18.4  0.314    613   0.00   0.00   1.00   0.00   0.00   0.00   0.00   1.00   0.88  400.0   0.00      0    613    288.4   0.00   0.00 1.2956   0.030   0.016   0.013   0.013   0.012   0.009   0.007   0.006   0.005   0.004      0      0      0       0       0  17.400  121.046
   15 190   114   113  73.416     5  1.045    671   1932   1642    922   3216   4858   8118   8118   20.2  0.338    613   0.00   0.00   1.00   0.00   0.00   0.00   0.00   1.00   0.80  400.0   0.00      0    613    288.4   0.00   0.00 1.3048   0.029   0.015   0.013   0.013   0.012   0.009   0.007   0.006   0.005   0.004      0      0      0       0       0  13.900  134.946
   15 191   115   114  73.792     5  1.038    671   1905   1802    916   3189   4991   8118   8118   22.2  0.361    613   0.00   0.00   1.00   0.00   0.00   0.00   0.00   1.00   0.73  400.0   0.00      0    613    288.4   0.00   0.00 1.3130   0.029   0.015   0.013   0.013   0.011   0.008   0.007   0.006   0.005   0.004      0      0      0       0       0  14.850  149.796
   15 192   116   115  74.252     5  1.030    671   1843   1978    909   3127   5105   8118   8118   24.4  0.387    613   0.00   0.00   1.00   0.00   0.00   0.00   0.00   1.00   0.69  400.0   0.00      0    613    288.4   0.00   0.00 1.3230   0.029   0.015   0.013   0.012   0.011   0.008   0.007   0.006   0.005   0.004      0      0      0       0       0  18.168  167.964
   15 193   117   116  74.769     5  1.020    671   1800   2128    901   3084   5211   8118   8118   26.2  0.408    613   0.00   0.00   1.00   0.00   0.00   0.00   0.00   1.00   0.65  400.0   0.00      0    613    288.4   0.00   0.00 1.3342   0.029   0.015   0.013   0.012   0.011   0.008   0.007   0.006   0.005   0.004      0      0      0       0       0  20.400  188.363
   15 194   118   117  75.235     5  1.007    671   1800   2197    892   3084   5281   8118   8118   27.1  0.416    613   0.00   0.00   1.00   0.00   0.00   0.00   0.00   1.00   0.62  400.0   0.00      0    613    288.4   0.00   0.00 1.3443   0.028   0.015   0.013   0.012   0.011   0.008   0.007   0.006   0.005   0.004      0      0      0       0       0  18.400  206.763
   15 195   119   118  75.756     5  0.993    671   1800   2280    883   3084   5364   8118   8118   28.1  0.425    613   0.00   0.00   1.00   0.00   0.00   0.00   0.00   1.00   0.60  400.0   0.00      0    613    288.4   0.00   0.00 1.3556   0.028   0.015   0.013   0.012   0.011   0.008   0.007   0.005   0.005   0.004      0      0      0       0       0  20.600  227.363
   15 196   120   119  76.303     5  0.977    671   1800   2379    874   3084   5462   8118   8118   29.3  0.435    613   0.00   0.00   1.00   0.00   0.00   0.00   0.00   1.00   0.59  400.0   0.00      0    613    288.4   0.00   0.00 1.3675   0.028   0.015   0.013   0.012   0.011   0.008   0.007   0.005   0.005   0.004      0      0      0       0       0  21.614  248.977
   15 197   121   120  76.850     5  0.959    671   1800   2472    866   3084   5555   8118   8118   30.4  0.445    613   0.00   0.00   1.00   0.00   0.00   0.00   0.00   1.00   0.57  400.0   0.00      0    613    288.4   0.00   0.00 1.3794   0.027   0.014   0.013   0.012   0.011   0.008   0.007   0.005   0.005   0.004      0      0      0       0       0  21.607  270.584
   15 198   122   121  77.431     5  0.938    671   1800   2543    857   3084   5626   8118   8118   31.3  0.452    613   0.00   0.00   1.28   0.00   0.00   0.00   0.00   1.00   0.55  400.0   0.00      0    613    288.4   0.00   0.00 1.3920   0.027   0.014   0.012   0.012   0.011   0.008   0.007   0.005   0.005   0.004      0      0      0       0       0  22.922  293.506
   15 199   123   122  77.978     5  0.909    671   1800   2611    849   3084   5695   8118   8118   32.2  0.459    613   0.00   0.00   1.00   0.00   0.00   0.00   0.00   1.00   0.54  400.0   0.00      0    613    288.4   0.00   0.00 1.4039   0.027   0.014   0.012   0.012   0.011   0.008   0.007   0.005   0.005   0.004      0      0      0       0       0  21.614  315.120
   15 200   124   123  78.537     5  0.885    671   1800   2679    840   3084   5762   8118   8118   33.0  0.465    613   0.00   0.00   1.00   0.00   0.00   0.00   0.00   1.00   0.53  400.0   0.00      0    613    288.4   0.00   0.00 1.4160   0.027   0.014   0.012   0.011   0.010   0.008   0.007   0.005   0.005   0.004      0      0      0       0       0  22.094  337.214
   15 201   125   124  79.119     5  0.859    671   1800   2750    832   3084   5833   8118   8118   33.9  0.471    613   0.00   0.01   1.00   0.00   0.00   0.00   0.00   1.00   0.51  400.0   0.00      0    613    288.4   0.00   0.00 1.4287   0.026   0.014   0.012   0.011   0.010   0.008   0.006   0.005   0.005   0.004      0      0      0       0       0  23.000  360.214
   15 202   126   125  79.704     5  0.831    671   1800   2821    823   3084   5905   8118   8118   34.8  0.478    613   0.00   0.04   1.04   0.00   0.00   0.00   0.00   1.00   0.50  400.0   0.00      0    613    288.4   0.00   0.00 1.4414   0.026   0.014   0.012   0.011   0.010   0.008   0.006   0.005   0.005   0.004      0      0      0       0       0  23.089  383.302
   15 203   127   126  80.289     5  0.799    671   1800   2881    815   3084   5964   8118   8118   35.5  0.483    613   0.00   0.08   1.58   0.00   0.00   0.00   0.00   1.00   0.49  400.0   0.00      0    613    288.4   0.00   0.00 1.4541   0.026   0.014   0.012   0.011   0.010   0.008   0.006   0.005   0.005   0.004      0      0      0       0       0  23.106  406.408
   15 204   128   127  80.831     5  0.748    671   1800   2931    807   3084   6015   8118   8118   36.1  0.487    613   0.00   0.12   1.00   0.00   0.00   0.00   0.00   1.00   0.47  400.0   0.00      0    613    288.4   0.00   0.00 1.4659   0.026   0.013   0.012   0.011   0.010   0.007   0.006   0.005   0.005   0.004      0      0      0       0       0  21.400  427.808
   15 205   129   128  81.378     5  0.716    671   1800   2995    799   3084   6078   8118   8118   36.9  0.493    613   0.00   0.13   1.00   0.00   0.00   0.00   0.00   1.00   0.46  400.0   0.00      0    613    288.4   0.00   0.00 1.4778   0.025   0.013   0.012   0.011   0.010   0.007   0.006   0.005   0.005   0.004      0      0      0       0       0  21.614  449.422
   15 206   130   129  81.854     5  0.682    671   1800   3061    791   3084   6145   8118   8118   37.7  0.498    613   0.00   0.16   1.00   0.00   0.00   0.00   0.00   1.00   0.45  400.0   0.00      0    613    288.4   0.00   0.00 1.4881   0.025   0.013   0.011   0.011   0.010   0.007   0.006   0.005   0.005   0.004      0      0      0       0       0  18.800  468.222
   15 207   131   130  82.247     5  0.652    671   1810   3126    783   3094   6221   8118   8118   38.5  0.503    613   0.00   0.17   1.00   0.00   0.00   0.00   0.00   1.00   0.44  400.0   0.00      0    613    288.4   0.00   0.00 1.4967   0.025   0.013   0.011   0.011   0.010   0.007   0.006   0.005   0.005   0.004      0      0      0       0       0  15.550  483.772
   15 208   132   131  82.712     5  0.626    671   1807   3188    775   3091   6279   8118   8118   39.3  0.508    613   0.00   0.07   1.00   0.00   0.00   0.00   0.00   1.00   0.43  400.0   0.00      0    613    288.4   0.00   0.00 1.5067   0.025   0.013   0.011   0.011   0.010   0.007   0.006   0.005   0.005   0.004      0      0      0       0       0  18.350  502.122
   15 209   133   132  83.154     5  0.594    671   1800   3247    768   3084   6330   8118   8118   40.0  0.513    613   0.00   0.06   1.00   0.00   0.00   0.00   0.00   1.00   0.42  400.0   0.00      0    613    288.4   0.00   0.00 1.5144   0.024   0.013   0.011   0.010   0.010   0.007   0.006   0.005   0.004   0.004      0      0      0       0       0  17.450  519.572
   15 210   134   133  83.533     5  0.563    671   1800   3288    760   3084   6371   8118   8118   40.5  0.516    613   0.00   0.07   1.00   0.00   0.00   0.00   0.00   1.00   0.41  400.0   0.00      0    613    288.4   0.00   0.00 1.5210   0.024   0.013   0.011   0.010   0.009   0.007   0.006   0.005   0.004   0.004      0      0      0       0       0  15.000  534.572
   15 211   135   134  83.904     5  0.535    671   1800   3342    752   3084   6425   8118   8118   41.2  0.520    613   0.00   0.11   1.00   0.00   0.00   0.00   0.00   1.00   0.40  400.0   0.00      0    613    288.4   0.00   0.00 1.5275   0.024   0.013   0.011   0.010   0.009   0.007   0.006   0.005   0.004   0.004      0      0      0       0       0  14.650  549.222
   15 212   136   135  84.320     5  0.507    671   1800   3399    745   3084   6482   8118   8118   41.9  0.524    613   0.00   0.16   1.00   0.00   0.00   0.00   0.00   1.00   0.39  400.0   0.00      0    613    288.4   0.00   0.00 1.5347   0.024   0.012   0.011   0.010   0.009   0.007   0.006   0.005   0.004   0.004      0      0      0       0       0  16.400  565.622
   15 213   137   136  84.749     5  0.475    671   1800   3429    737   3084   6512   8118   8118   42.2  0.526    613   0.00   0.20   1.00   0.00   0.00   0.00   0.00   1.00   0.38  400.0   0.00      0    613    288.4   0.00   0.00 1.5421   0.023   0.012   0.011   0.010   0.009   0.007   0.006   0.005   0.004   0.004      0      0      0       0       0  16.950  582.572
   15 214   138   137  85.230     5  0.441    671   1800   3468    730   3084   6552   8118   8118   42.7  0.529    613   0.00   0.22   1.00   0.00   0.00   0.00   0.00   1.00   0.37  400.0   0.00      0    613    288.4   0.00   0.00 1.5505   0.023   0.012   0.011   0.010   0.009   0.007   0.006   0.005   0.004   0.003      0      0      0       0       0  19.000  601.572
   15 215   139   138  85.726     5  0.402    671   1800   3510    723   3084   6593   8118   8118   43.2  0.532    613   0.00   0.25   1.00   0.00   0.00   0.00   0.00   1.00   0.36  400.0   0.00      0    613    288.4   0.00   0.00 1.5591   0.023   0.012   0.010   0.010   0.009   0.007   0.006   0.004   0.004   0.003      0      0      0       0       0  19.595  621.168
   15 216   140   139  86.259     5  0.360    671   1800   3539    715   3084   6622   8118   8118   43.6  0.534    613   0.00   0.28   1.16   0.03   0.00   0.00   0.00   1.00   0.35  400.0   0.00      0    613    288.4   0.00   0.00 1.5684   0.023   0.012   0.010   0.010   0.009   0.007   0.006   0.004   0.004   0.003      0      0      0       0       0  21.046  642.213
   15 217   141   140  86.797     5  0.305    671   1800   3567    708   3084   6651   8118   8118   43.9  0.536    613   0.00   0.30   1.00   0.08   0.00   0.00   0.00   1.00   0.34  400.0   0.00      0    613    288.4   0.00   0.00 1.5777   0.022   0.012   0.010   0.010   0.009   0.007   0.006   0.004   0.004   0.003      0      0      0       0       0  21.283  663.497
   15 218   142   141  87.354     5  0.257    671   1800   3588    701   3084   6671   8118   8118   44.2  0.538    613   0.00   0.31   1.84   0.13   0.00   0.00   0.00   1.00   0.33  400.0   0.00      0    613    288.4   0.00   0.00 1.5874   0.022   0.012   0.010   0.010   0.009   0.006   0.005   0.004   0.004   0.003      0      0      0       0       0  21.984  685.481
   15 219   143   142  87.929     5  0.161    671   1800   3599    694   3084   6683   8118   8118   44.3  0.539    613   0.00   0.31   2.38   0.17   0.00   0.00   0.00   1.00   0.32  400.0   0.00      0    613    288.4   0.00   0.00 1.5974   0.022   0.012   0.010   0.009   0.009   0.006   0.005   0.004   0.004   0.003      0      0      0       0       0  22.695  708.176
   15 220   144   143  88.513     5  0.029    671   1800   3601    687   3084   6685   8118   8118   44.4  0.539    613   0.00   0.29   2.37   0.20   0.00   0.00   0.00   1.00   0.32  400.0   0.00      0    613    288.4   0.00   0.00 1.6076   0.022   0.011   0.010   0.009   0.009   0.006   0.005   0.004   0.004   0.003      0      0      0       0       0  23.100  731.276
   15 221   145   144  89.099     5  0.000    671   1800   3601    680   3084   6685   8118   8118   44.4  0.539    613   0.00   0.30   1.92   0.08   0.00   0.00   0.00   1.00   0.32  400.0   0.00      0    613    288.4   0.00   0.00 1.6178   0.022   0.011   0.010   0.009   0.008   0.006   0.005   0.004   0.004   0.003      0      0      0       0       0  23.151  754.427
   15 222   146   145  89.688     5  0.000    671   1800   3601    674   3084   6686   8118   8118   44.4  0.539    613   0.00   0.30   1.00   0.00   0.00   0.00   0.00   1.00   0.32  400.0   0.00      0    613    288.4   0.00   0.00 1.6280   0.021   0.011   0.010   0.009   0.008   0.006   0.005   0.004   0.004   0.003      0      0      0       0       0  23.244  777.671
   15 223   147   146  90.000     6  0.000    671   1800   3601    667   3084   6686   8118   8118   44.4  0.539    613   0.00   0.30   1.52   0.00   0.00   0.00   0.00   1.00   0.32  400.0   0.00      0    613    288.4   0.00   0.00 1.6280   0.021   0.011   0.010   0.009   0.008   0.006   0.005   0.004   0.004   0.003      0      0      0       0       0  22.984   10.655
   15 224   148   147  90.000     7  0.000    671   1800   3601    667   3084   6686   8118   8118   44.4  0.539    613   0.00   0.30   1.52   0.00   0.00   0.00   0.00   1.00   0.32  400.0   0.00      0    613    288.4   0.00   0.00 1.6280   0.021   0.011   0.010   0.009   0.008   0.006   0.005   0.004   0.004   0.003      0      0      0       0       0  22.374    7.650
   15 225   149   148  90.000     7  0.000    671   1800   3601    667   3084   6686   8118   8118   44.4  0.539    613   0.00   0.30   1.52   0.00   0.00   0.00   0.00   1.00   0.32  400.0   0.00      0    613    288.4   0.00   0.00 1.6280   0.021   0.011   0.010   0.009   0.008   0.006   0.005   0.004   0.004   0.003      0      0      0       0       0  22.374    7.650
   15 226   150   149  90.000     7  0.000    671   1800   3601    667   3084   6686   8118   8118   44.4  0.539    613   0.00   0.30   1.52   0.00   0.00   0.00   0.00   1.00   0.32  400.0   0.00      0    613    288.4   0.00   0.00 1.6280   0.021   0.011   0.010   0.009   0.008   0.006   0.005   0.004   0.004   0.003      0      0      0       0       0  22.374    7.650
   15 227   151   150  90.000     7  0.000    671   1800   3601    667   3084   6686   8118   8118   44.4  0.539    613   0.00   0.30   1.52   0.00   0.00   0.00   0.00   1.00   0.32  400.0   0.00      0    613    288.4   0.00   0.00 1.6280   0.021   0.011   0.010   0.009   0.008   0.006   0.005   0.004   0.004   0.003      0      0      0       0       0  22.374    7.650
   15 228   152   151  90.000     7  0.000    671   1800   3601    667   3084   6686   8118   8118   44.4  0.539    613   0.00   0.30   1.52   0.00   0.00   0.00   0.00   1.00   0.32  400.0   0.00      0    613    288.4   0.00   0.00 1.6280   0.021   0.011   0.010   0.009   0.008   0.006   0.005   0.004   0.004   0.003      0      0      0       0       0  22.374    7.650
   15 229   153   152  90.000     7  0.000    671   1800   3601    667   3084   6686   8118   8118   44.4  0.539    613   0.00   0.30   1.52   0.00   0.00   0.00   0.00   1.00   0.32  400.0   0.00      0    613    288.4   0.00   0.00 1.6280   0.021   0.011   0.010   0.009   0.008   0.006   0.005   0.004   0.004   0.003      0      0      0       0       0  22.374    7.650
   15 230   154   153  90.000     7  0.000    671   1800   3601    667   3084   6686   8118   8118   44.4  0.539    613   0.00   0.30   1.52   0.00   0.00   0.00   0.00   1.00   0.32  400.0   0.00      0    613    288.4   0.00   0.00 1.6280   0.021   0.011   0.010   0.009   0.008   0.006   0.005   0.004   0.004   0.003      0      0      0       0       0  22.374    7.650
   15 231   155   154  90.000     7  0.000    671   1800   3601    667   3084   6686   8118   8118   44.4  0.539    613   0.00   0.30   1.52   0.00   0.00   0.00   0.00   1.00   0.32  400.0   0.00      0    613    288.4   0.00   0.00 1.6280   0.021   0.011   0.010   0.009   0.008   0.006   0.005   0.004   0.004   0.003      0      0      0       0       0  22.374    7.650
   15 232   156   155  90.000     7  0.000    671   1800   3601    667   3084   6686   8118   8118   44.4  0.539    613   0.00   0.30   1.52   0.00   0.00   0.00   0.00   1.00   0.32  400.0   0.00      0    613    288.4   0.00   0.00 1.6280   0.021   0.011   0.010   0.009   0.008   0.006   0.005   0.004   0.004   0.003      0      0      0       0       0  22.374    7.650
   15 233   157   156  90.000     7  0.000    671   1800   3601    667   3084   6686   8118   8118   44.4  0.539    613   0.00   0.30   1.52   0.00   0.00   0.00   0.00   1.00   0.32  400.0   0.00      0    613    288.4   0.00   0.00 1.6280   0.021   0.011   0.010   0.009   0.008   0.006   0.005   0.004   0.004   0.003      0      0      0       0       0  22.374    7.650
   15 234   158   157  90.000     7  0.000    671   1800   3601    667   3084   6686   8118   8118   44.4  0.539    613   0.00   0.30   1.52   0.00   0.00   0.00   0.00   1.00   0.32  400.0   0.00      0    613    288.4   0.00   0.00 1.6280   0.021   0.011   0.010   0.009   0.008   0.006   0.005   0.004   0.004   0.003      0      0      0       0       0  22.374    7.650
   15 235   159   158  90.000     7  0.000    671   1800   3601    667   3084   6686   8118   8118   44.4  0.539    613   0.00   0.30   1.52   0.00   0.00   0.00   0.00   1.00   0.32  400.0   0.00      0    613    288.4   0.00   0.00 1.6280   0.021   0.011   0.010   0.009   0.008   0.006   0.005   0.004   0.004   0.003      0      0      0       0       0  22.374    7.650
   15 236   160   159  90.000     7  0.000    671   1800   3601    667   3084   6686   8118   8118   44.4  0.539    613   0.00   0.30   1.52   0.00   0.00   0.00   0.00   1.00   0.32  400.0   0.00      0    613    288.4   0.00   0.00 1.6280   0.021   0.011   0.010   0.009   0.008   0.006   0.005   0.004   0.004   0.003      0      0      0       0       0  22.374    7.650
   15 237   161   160  90.000     7  0.000    671   1800   3601    667   3084   6686   8118   8118   44.4  0.539    613   0.00   0.30   1.52   0.00   0.00   0.00   0.00   1.00   0.32  400.0   0.00      0    613    288.4   0.00   0.00 1.6280   0.021   0.011   0.010   0.009   0.008   0.006   0.005   0.004   0.004   0.003      0      0      0       0       0  22.374    7.650
