*Soil Carbon Balance

*DSSAT Cropping System Model Ver. 4.8.5.000 -release  MAR 01, 2026 09:34:20

*RUN   1        : 1                         WHAPS048 TUDU1501    1
 MODEL          : WHAPS048 - Wheat
 EXPERIMENT     : TUDU1501 WH
 DATA PATH      :
 TREATMENT  1   : 1                         WHAPS048
  

!                                                 Initial               Final
!                                                Year/DOY            Year/DOY
!                                                  15-076              15-076
! SOIL C BALANCE                                 --------- kg[C]/ha ---------
!  SOIL & SURFACE ORGANIC C
!   Soil Organic C                              310025.59           309685.44
!   Surface Organic C                                0.00                0.00
!   Soil Litter C                                 4080.00             1453.73
!   Surface Litter C                                 0.00                0.00
!   Soil methane C stored                            0.00                0.00
!                                                --------            --------
!   Total C in Soil and Surface Layers          314105.59           311139.16
!  ADDITIONS AND REMOVALS:
!   C in Harvest Residues from Previous              0.00
!   C from Organic Applications                      0.00
!   C in returned senesced material                  0.00
!   CO2-C emitted                                 2966.42
!   CH4-C emitted                                    0.00
!   CH4-C leached                                    0.00
!   CH4-C plant uptake                               0.00
!                                                --------            --------
! TOTAL C BALANCE                               314105.59           314105.56
!   Balance                                                            -0.018

*DSSAT Cropping System Model Ver. 4.8.5.000 -release  MAR 01, 2026 09:34:20

*RUN   2        : 2                         WHAPS048 TUDU1501    2
 MODEL          : WHAPS048 - Wheat
 EXPERIMENT     : TUDU1501 WH
 DATA PATH      :
 TREATMENT  2   : 2                         WHAPS048
  

!                                                 Initial               Final
!                                                Year/DOY            Year/DOY
!                                                  15-076              15-076
! SOIL C BALANCE                                 --------- kg[C]/ha ---------
!  SOIL & SURFACE ORGANIC C
!   Soil Organic C                              310025.59           309687.62
!   Surface Organic C                                0.00                0.00
!   Soil Litter C                                 4080.00             1443.25
!   Surface Litter C                                 0.00                0.00
!   Soil methane C stored                            0.00                0.00
!                                                --------            --------
!   Total C in Soil and Surface Layers          314105.59           311130.88
!  ADDITIONS AND REMOVALS:
!   C in Harvest Residues from Previous              0.00
!   C from Organic Applications                      0.00
!   C in returned senesced material                  0.00
!   CO2-C emitted                                 2974.70
!   CH4-C emitted                                    0.00
!   CH4-C leached                                    0.00
!   CH4-C plant uptake                               0.00
!                                                --------            --------
! TOTAL C BALANCE                               314105.59           314105.56
!   Balance                                                            -0.021

*DSSAT Cropping System Model Ver. 4.8.5.000 -release  MAR 01, 2026 09:34:20

*RUN   3        : 3                         WHAPS048 TUDU1501    3
 MODEL          : WHAPS048 - Wheat
 EXPERIMENT     : TUDU1501 WH
 DATA PATH      :
 TREATMENT  3   : 3                         WHAPS048
  

!                                                 Initial               Final
!                                                Year/DOY            Year/DOY
!                                                  15-076              15-076
! SOIL C BALANCE                                 --------- kg[C]/ha ---------
!  SOIL & SURFACE ORGANIC C
!   Soil Organic C                              310025.59           309557.16
!   Surface Organic C                                0.00                0.00
!   Soil Litter C                                 4080.00             1514.26
!   Surface Litter C                                 0.00                0.00
!   Soil methane C stored                            0.00                0.00
!                                                --------            --------
!   Total C in Soil and Surface Layers          314105.59           311071.41
!  ADDITIONS AND REMOVALS:
!   C in Harvest Residues from Previous              0.00
!   C from Organic Applications                      0.00
!   C in returned senesced material                  0.00
!   CO2-C emitted                                 3034.23
!   CH4-C emitted                                    0.00
!   CH4-C leached                                    0.00
!   CH4-C plant uptake                               0.00
!                                                --------            --------
! TOTAL C BALANCE                               314105.59           314105.62
!   Balance                                                             0.040

*DSSAT Cropping System Model Ver. 4.8.5.000 -release  MAR 01, 2026 09:34:20

*RUN   4        : 4                         WHAPS048 TUDU1501    4
 MODEL          : WHAPS048 - Wheat
 EXPERIMENT     : TUDU1501 WH
 DATA PATH      :
 TREATMENT  4   : 4                         WHAPS048
  

!                                                 Initial               Final
!                                                Year/DOY            Year/DOY
!                                                  15-076              15-076
! SOIL C BALANCE                                 --------- kg[C]/ha ---------
!  SOIL & SURFACE ORGANIC C
!   Soil Organic C                              310025.59           309685.56
!   Surface Organic C                                0.00                0.00
!   Soil Litter C                                 4080.00             1450.54
!   Surface Litter C                                 0.00                0.00
!   Soil methane C stored                            0.00                0.00
!                                                --------            --------
!   Total C in Soil and Surface Layers          314105.59           311136.09
!  ADDITIONS AND REMOVALS:
!   C in Harvest Residues from Previous              0.00
!   C from Organic Applications                      0.00
!   C in returned senesced material                  0.00
!   CO2-C emitted                                 2969.47
!   CH4-C emitted                                    0.00
!   CH4-C leached                                    0.00
!   CH4-C plant uptake                               0.00
!                                                --------            --------
! TOTAL C BALANCE                               314105.59           314105.56
!   Balance                                                            -0.026

*DSSAT Cropping System Model Ver. 4.8.5.000 -release  MAR 01, 2026 09:34:20

*RUN   5        : 5                         WHAPS048 TUDU1501    5
 MODEL          : WHAPS048 - Wheat
 EXPERIMENT     : TUDU1501 WH
 DATA PATH      :
 TREATMENT  5   : 5                         WHAPS048
  

!                                                 Initial               Final
!                                                Year/DOY            Year/DOY
!                                                  15-076              15-076
! SOIL C BALANCE                                 --------- kg[C]/ha ---------
!  SOIL & SURFACE ORGANIC C
!   Soil Organic C                              310025.59           309717.38
!   Surface Organic C                                0.00                0.00
!   Soil Litter C                                 4080.00             1331.07
!   Surface Litter C                                 0.00                0.00
!   Soil methane C stored                            0.00                0.00
!                                                --------            --------
!   Total C in Soil and Surface Layers          314105.59           311048.44
!  ADDITIONS AND REMOVALS:
!   C in Harvest Residues from Previous              0.00
!   C from Organic Applications                      0.00
!   C in returned senesced material                  0.00
!   CO2-C emitted                                 3057.10
!   CH4-C emitted                                    0.00
!   CH4-C leached                                    0.00
!   CH4-C plant uptake                               0.00
!                                                --------            --------
! TOTAL C BALANCE                               314105.59           314105.53
!   Balance                                                            -0.058

*DSSAT Cropping System Model Ver. 4.8.5.000 -release  MAR 01, 2026 09:34:20

*RUN   6        : 6                         WHAPS048 TUDU1501    6
 MODEL          : WHAPS048 - Wheat
 EXPERIMENT     : TUDU1501 WH
 DATA PATH      :
 TREATMENT  6   : 6                         WHAPS048
  

!                                                 Initial               Final
!                                                Year/DOY            Year/DOY
!                                                  15-076              15-076
! SOIL C BALANCE                                 --------- kg[C]/ha ---------
!  SOIL & SURFACE ORGANIC C
!   Soil Organic C                              310025.59           309681.47
!   Surface Organic C                                0.00                0.00
!   Soil Litter C                                 4080.00             1469.74
!   Surface Litter C                                 0.00                0.00
!   Soil methane C stored                            0.00                0.00
!                                                --------            --------
!   Total C in Soil and Surface Layers          314105.59           311151.22
!  ADDITIONS AND REMOVALS:
!   C in Harvest Residues from Previous              0.00
!   C from Organic Applications                      0.00
!   C in returned senesced material                  0.00
!   CO2-C emitted                                 2954.40
!   CH4-C emitted                                    0.00
!   CH4-C leached                                    0.00
!   CH4-C plant uptake                               0.00
!                                                --------            --------
! TOTAL C BALANCE                               314105.59           314105.62
!   Balance                                                             0.027

*DSSAT Cropping System Model Ver. 4.8.5.000 -release  MAR 01, 2026 09:34:21

*RUN   7        : 7                         WHAPS048 TUDU1501    7
 MODEL          : WHAPS048 - Wheat
 EXPERIMENT     : TUDU1501 WH
 DATA PATH      :
 TREATMENT  7   : 7                         WHAPS048
  

!                                                 Initial               Final
!                                                Year/DOY            Year/DOY
!                                                  15-076              15-076
! SOIL C BALANCE                                 --------- kg[C]/ha ---------
!  SOIL & SURFACE ORGANIC C
!   Soil Organic C                              310025.59           309713.81
!   Surface Organic C                                0.00                0.00
!   Soil Litter C                                 4080.00             1347.70
!   Surface Litter C                                 0.00                0.00
!   Soil methane C stored                            0.00                0.00
!                                                --------            --------
!   Total C in Soil and Surface Layers          314105.59           311061.50
!  ADDITIONS AND REMOVALS:
!   C in Harvest Residues from Previous              0.00
!   C from Organic Applications                      0.00
!   C in returned senesced material                  0.00
!   CO2-C emitted                                 3044.06
!   CH4-C emitted                                    0.00
!   CH4-C leached                                    0.00
!   CH4-C plant uptake                               0.00
!                                                --------            --------
! TOTAL C BALANCE                               314105.59           314105.56
!   Balance                                                            -0.037

*DSSAT Cropping System Model Ver. 4.8.5.000 -release  MAR 01, 2026 09:34:21

*RUN   8        : 8                         WHAPS048 TUDU1501    8
 MODEL          : WHAPS048 - Wheat
 EXPERIMENT     : TUDU1501 WH
 DATA PATH      :
 TREATMENT  8   : 8                         WHAPS048
  

!                                                 Initial               Final
!                                                Year/DOY            Year/DOY
!                                                  15-076              15-076
! SOIL C BALANCE                                 --------- kg[C]/ha ---------
!  SOIL & SURFACE ORGANIC C
!   Soil Organic C                              310025.59           309759.44
!   Surface Organic C                                0.00                0.00
!   Soil Litter C                                 4080.00             1192.60
!   Surface Litter C                                 0.00                0.00
!   Soil methane C stored                            0.00                0.00
!                                                --------            --------
!   Total C in Soil and Surface Layers          314105.59           310952.03
!  ADDITIONS AND REMOVALS:
!   C in Harvest Residues from Previous              0.00
!   C from Organic Applications                      0.00
!   C in returned senesced material                  0.00
!   CO2-C emitted                                 3153.50
!   CH4-C emitted                                    0.00
!   CH4-C leached                                    0.00
!   CH4-C plant uptake                               0.00
!                                                --------            --------
! TOTAL C BALANCE                               314105.59           314105.53
!   Balance                                                            -0.064

*DSSAT Cropping System Model Ver. 4.8.5.000 -release  MAR 01, 2026 09:34:21

*RUN   9        : 9                         WHAPS048 TUDU1501    9
 MODEL          : WHAPS048 - Wheat
 EXPERIMENT     : TUDU1501 WH
 DATA PATH      :
 TREATMENT  9   : 9                         WHAPS048
  

!                                                 Initial               Final
!                                                Year/DOY            Year/DOY
!                                                  15-076              15-076
! SOIL C BALANCE                                 --------- kg[C]/ha ---------
!  SOIL & SURFACE ORGANIC C
!   Soil Organic C                              310025.59           309763.00
!   Surface Organic C                                0.00                0.00
!   Soil Litter C                                 4080.00             1180.06
!   Surface Litter C                                 0.00                0.00
!   Soil methane C stored                            0.00                0.00
!                                                --------            --------
!   Total C in Soil and Surface Layers          314105.59           310943.06
!  ADDITIONS AND REMOVALS:
!   C in Harvest Residues from Previous              0.00
!   C from Organic Applications                      0.00
!   C in returned senesced material                  0.00
!   CO2-C emitted                                 3162.55
!   CH4-C emitted                                    0.00
!   CH4-C leached                                    0.00
!   CH4-C plant uptake                               0.00
!                                                --------            --------
! TOTAL C BALANCE                               314105.59           314105.62
!   Balance                                                             0.023

*DSSAT Cropping System Model Ver. 4.8.5.000 -release  MAR 01, 2026 09:34:21

*RUN  10        : 10                        WHAPS048 TUDU1501   10
 MODEL          : WHAPS048 - Wheat
 EXPERIMENT     : TUDU1501 WH
 DATA PATH      :
 TREATMENT 10   : 10                        WHAPS048
  

!                                                 Initial               Final
!                                                Year/DOY            Year/DOY
!                                                  15-076              15-076
! SOIL C BALANCE                                 --------- kg[C]/ha ---------
!  SOIL & SURFACE ORGANIC C
!   Soil Organic C                              310025.59           309557.19
!   Surface Organic C                                0.00                0.00
!   Soil Litter C                                 4080.00             1514.31
!   Surface Litter C                                 0.00                0.00
!   Soil methane C stored                            0.00                0.00
!                                                --------            --------
!   Total C in Soil and Surface Layers          314105.59           311071.50
!  ADDITIONS AND REMOVALS:
!   C in Harvest Residues from Previous              0.00
!   C from Organic Applications                      0.00
!   C in returned senesced material                  0.00
!   CO2-C emitted                                 3034.17
!   CH4-C emitted                                    0.00
!   CH4-C leached                                    0.00
!   CH4-C plant uptake                               0.00
!                                                --------            --------
! TOTAL C BALANCE                               314105.59           314105.66
!   Balance                                                             0.072

*DSSAT Cropping System Model Ver. 4.8.5.000 -release  MAR 01, 2026 09:34:21

*RUN  11        : 11                        WHAPS048 TUDU1501   11
 MODEL          : WHAPS048 - Wheat
 EXPERIMENT     : TUDU1501 WH
 DATA PATH      :
 TREATMENT 11   : 11                        WHAPS048
  

!                                                 Initial               Final
!                                                Year/DOY            Year/DOY
!                                                  15-076              15-076
! SOIL C BALANCE                                 --------- kg[C]/ha ---------
!  SOIL & SURFACE ORGANIC C
!   Soil Organic C                              310025.59           309759.44
!   Surface Organic C                                0.00                0.00
!   Soil Litter C                                 4080.00             1192.60
!   Surface Litter C                                 0.00                0.00
!   Soil methane C stored                            0.00                0.00
!                                                --------            --------
!   Total C in Soil and Surface Layers          314105.59           310952.03
!  ADDITIONS AND REMOVALS:
!   C in Harvest Residues from Previous              0.00
!   C from Organic Applications                      0.00
!   C in returned senesced material                  0.00
!   CO2-C emitted                                 3153.50
!   CH4-C emitted                                    0.00
!   CH4-C leached                                    0.00
!   CH4-C plant uptake                               0.00
!                                                --------            --------
! TOTAL C BALANCE                               314105.59           314105.53
!   Balance                                                            -0.064

*DSSAT Cropping System Model Ver. 4.8.5.000 -release  MAR 01, 2026 09:34:21

*RUN  12        : 12                        WHAPS048 TUDU1501   12
 MODEL          : WHAPS048 - Wheat
 EXPERIMENT     : TUDU1501 WH
 DATA PATH      :
 TREATMENT 12   : 12                        WHAPS048
  

!                                                 Initial               Final
!                                                Year/DOY            Year/DOY
!                                                  15-076              15-076
! SOIL C BALANCE                                 --------- kg[C]/ha ---------
!  SOIL & SURFACE ORGANIC C
!   Soil Organic C                              310025.59           309760.78
!   Surface Organic C                                0.00                0.00
!   Soil Litter C                                 4080.00             1185.71
!   Surface Litter C                                 0.00                0.00
!   Soil methane C stored                            0.00                0.00
!                                                --------            --------
!   Total C in Soil and Surface Layers          314105.59           310946.50
!  ADDITIONS AND REMOVALS:
!   C in Harvest Residues from Previous              0.00
!   C from Organic Applications                      0.00
!   C in returned senesced material                  0.00
!   CO2-C emitted                                 3159.07
!   CH4-C emitted                                    0.00
!   CH4-C leached                                    0.00
!   CH4-C plant uptake                               0.00
!                                                --------            --------
! TOTAL C BALANCE                               314105.59           314105.56
!   Balance                                                            -0.026

*DSSAT Cropping System Model Ver. 4.8.5.000 -release  MAR 01, 2026 09:34:21

*RUN  13        : 13                        WHAPS048 TUDU1501   13
 MODEL          : WHAPS048 - Wheat
 EXPERIMENT     : TUDU1501 WH
 DATA PATH      :
 TREATMENT 13   : 13                        WHAPS048
  

!                                                 Initial               Final
!                                                Year/DOY            Year/DOY
!                                                  15-076              15-076
! SOIL C BALANCE                                 --------- kg[C]/ha ---------
!  SOIL & SURFACE ORGANIC C
!   Soil Organic C                              310025.59           309735.09
!   Surface Organic C                                0.00                0.00
!   Soil Litter C                                 4080.00             1281.81
!   Surface Litter C                                 0.00                0.00
!   Soil methane C stored                            0.00                0.00
!                                                --------            --------
!   Total C in Soil and Surface Layers          314105.59           311016.91
!  ADDITIONS AND REMOVALS:
!   C in Harvest Residues from Previous              0.00
!   C from Organic Applications                      0.00
!   C in returned senesced material                  0.00
!   CO2-C emitted                                 3088.73
!   CH4-C emitted                                    0.00
!   CH4-C leached                                    0.00
!   CH4-C plant uptake                               0.00
!                                                --------            --------
! TOTAL C BALANCE                               314105.59           314105.62
!   Balance                                                             0.041

*DSSAT Cropping System Model Ver. 4.8.5.000 -release  MAR 01, 2026 09:34:22

*RUN  14        : 14                        WHAPS048 TUDU1501   14
 MODEL          : WHAPS048 - Wheat
 EXPERIMENT     : TUDU1501 WH
 DATA PATH      :
 TREATMENT 14   : 14                        WHAPS048
  

!                                                 Initial               Final
!                                                Year/DOY            Year/DOY
!                                                  15-076              15-076
! SOIL C BALANCE                                 --------- kg[C]/ha ---------
!  SOIL & SURFACE ORGANIC C
!   Soil Organic C                              310025.59           309724.41
!   Surface Organic C                                0.00                0.00
!   Soil Litter C                                 4080.00             1305.27
!   Surface Litter C                                 0.00                0.00
!   Soil methane C stored                            0.00                0.00
!                                                --------            --------
!   Total C in Soil and Surface Layers          314105.59           311029.69
!  ADDITIONS AND REMOVALS:
!   C in Harvest Residues from Previous              0.00
!   C from Organic Applications                      0.00
!   C in returned senesced material                  0.00
!   CO2-C emitted                                 3075.95
!   CH4-C emitted                                    0.00
!   CH4-C leached                                    0.00
!   CH4-C plant uptake                               0.00
!                                                --------            --------
! TOTAL C BALANCE                               314105.59           314105.66
!   Balance                                                             0.047

*DSSAT Cropping System Model Ver. 4.8.5.000 -release  MAR 01, 2026 09:34:22

*RUN  15        : 15                        WHAPS048 TUDU1501   15
 MODEL          : WHAPS048 - Wheat
 EXPERIMENT     : TUDU1501 WH
 DATA PATH      :
 TREATMENT 15   : 15                        WHAPS048
  

!                                                 Initial               Final
!                                                Year/DOY            Year/DOY
!                                                  15-076              15-076
! SOIL C BALANCE                                 --------- kg[C]/ha ---------
!  SOIL & SURFACE ORGANIC C
!   Soil Organic C                              310025.59           309548.16
!   Surface Organic C                                0.00                0.00
!   Soil Litter C                                 4080.00             1557.40
!   Surface Litter C                                 0.00                0.00
!   Soil methane C stored                            0.00                0.00
!                                                --------            --------
!   Total C in Soil and Surface Layers          314105.59           311105.56
!  ADDITIONS AND REMOVALS:
!   C in Harvest Residues from Previous              0.00
!   C from Organic Applications                      0.00
!   C in returned senesced material                  0.00
!   CO2-C emitted                                 3000.08
!   CH4-C emitted                                    0.00
!   CH4-C leached                                    0.00
!   CH4-C plant uptake                               0.00
!                                                --------            --------
! TOTAL C BALANCE                               314105.59           314105.66
!   Balance                                                             0.051
