*Soil Organic Matter daily output file

*DSSAT Cropping System Model Ver. 4.8.5.000 -release  MAR 01, 2026 09:34:20

*RUN   1        : 1                         WHAPS048 TUDU1501    1
 MODEL          : WHAPS048 - Wheat
 EXPERIMENT     : TUDU1501 WH
 DATA PATH      :
 TREATMENT  1   : 1                         WHAPS048
  
@YEAR DOY   DAS    OMAC    SCDD    SOCD    SC0D    SCTD   SOMCT    LCTD    ONAC    SNDD    SOND    SN0D    SNTD   SOMNT    LNTD
   15 076     0       0   31829  314106       0  314106  310026  4080.0    0.00  1072.8 16942.7    0.00 16942.7 16850.9   91.80
   15 077     1       0   31407  314076       0  314076  310028  4048.1    0.00  1056.6 16942.8    0.00 16942.8 16850.9   91.96
   15 078     2       0   31409  314050       0  314050  310030  4020.3    0.00  1056.7 16942.9    0.00 16942.9 16850.8   92.09
   15 079     3       0   31411  314030       0  314030  310031  3998.8    0.00  1056.7 16942.9    0.00 16942.9 16850.7   92.18
   15 080     4       0   31432  314016       0  314016  310032  3984.1    0.00  1057.5 16942.9    0.00 16942.9 16850.7   92.23
   15 081     5       0   31438  314007       0  314007  310033  3974.2    0.00  1057.7 16942.9    0.00 16942.9 16850.7   92.27
   15 082     6       0   31439  314004       0  314004  310033  3971.6    0.00  1057.7 16942.9    0.00 16942.9 16850.6   92.28
   15 083     7       0   31439  314004       0  314004  310033  3971.5    0.00  1057.7 16942.9    0.00 16942.9 16850.6   92.28
   15 084     8       0   31439  314004       0  314004  310032  3971.4    0.00  1057.7 16942.9    0.00 16942.9 16850.6   92.28
   15 085     9       0   31443  314002       0  314002  310032  3969.8    0.00  1057.9 16942.9    0.00 16942.9 16850.6   92.29
   15 086    10       0   31451  313999       0  313999  310032  3966.8    0.00  1058.2 16942.9    0.00 16942.9 16850.6   92.30
   15 087    11       0   31453  313994       0  313994  310033  3961.6    0.00  1058.2 16942.9    0.00 16942.9 16850.6   92.31
   15 088    12       0   31459  313986       0  313986  310033  3953.1    0.00  1058.5 16942.9    0.00 16942.9 16850.5   92.34
   15 089    13       0   31507  313975       0  313975  310033  3941.7    0.00  1060.3 16942.9    0.00 16942.9 16850.5   92.38
   15 090    14       0   31528  313964       0  313964  310034  3930.0    0.00  1061.1 16942.9    0.00 16942.9 16850.4   92.42
   15 091    15       0   31548  313952       0  313952  310035  3916.6    0.00  1061.9 16942.9    0.00 16942.9 16850.4   92.45
   15 092    16       0   31572  313943       0  313943  310036  3907.1    0.00  1062.8 16942.9    0.00 16942.9 16850.4   92.48
   15 093    17       0   31573  313938       0  313938  310036  3901.6    0.00  1062.8 16942.9    0.00 16942.9 16850.4   92.50
   15 094    18       0   31593  313937       0  313937  310036  3901.6    0.00  1063.5 16942.9    0.00 16942.9 16850.4   92.50
   15 095    19       0   31593  313937       0  313937  310036  3901.5    0.00  1063.5 16942.9    0.00 16942.9 16850.4   92.50
   15 096    20       0   31593  313937       0  313937  310036  3901.5    0.00  1063.6 16942.9    0.00 16942.9 16850.4   92.50
   15 097    21       0   31593  313937       0  313937  310036  3901.5    0.00  1063.6 16942.9    0.00 16942.9 16850.4   92.50
   15 098    22       0   31593  313937       0  313937  310036  3901.5    0.00  1063.6 16942.9    0.00 16942.9 16850.4   92.50
   15 099    23       0   31593  313937       0  313937  310036  3901.5    0.00  1063.6 16942.9    0.00 16942.9 16850.4   92.50
   15 100    24       0   31593  313937       0  313937  310036  3901.5    0.00  1063.6 16942.9    0.00 16942.9 16850.4   92.50
   15 101    25       0   31594  313929       0  313929  310037  3892.5    0.00  1063.6 16942.9    0.00 16942.9 16850.3   92.52
   15 102    26       0   31596  313911       0  313911  310038  3873.0    0.00  1063.6 16942.9    0.00 16942.9 16850.3   92.57
   15 103    27       0   31599  313885       0  313885  310040  3844.6    0.00  1063.7 16942.9    0.00 16942.9 16850.2   92.63
   15 104    28       0   31602  313855       0  313855  310042  3812.7    0.00  1063.7 16942.9    0.00 16942.9 16850.2   92.68
   15 105    29       0   31605  313825       0  313825  310044  3781.3    0.00  1063.8 16942.8    0.00 16942.8 16850.1   92.72
   15 106    30       0   31608  313795       0  313795  310045  3749.5    0.00  1063.9 16942.7    0.00 16942.7 16850.0   92.75
   15 107    31       0   31697  313763       0  313763  310046  3717.2    0.00  1067.3 16942.6    0.00 16942.6 16849.9   92.76
   15 108    32       0   31702  313718       0  313718  310050  3667.8    0.00  1067.4 16942.6    0.00 16942.6 16849.8   92.76
   15 109    33       0   31706  313677       0  313677  310055  3621.9    0.00  1067.5 16942.6    0.00 16942.6 16849.8   92.74
   15 110    34       0   31709  313642       0  313642  310059  3582.8    0.00  1067.5 16942.5    0.00 16942.5 16849.8   92.69
   15 111    35       0   31712  313616       0  313616  310061  3554.8    0.00  1067.6 16942.4    0.00 16942.4 16849.8   92.65
   15 112    36       0   31713  313598       0  313598  310063  3535.2    0.00  1067.7 16942.4    0.00 16942.4 16849.8   92.60
   15 113    37       0   31715  313581       0  313581  310064  3517.2    0.00  1067.7 16942.3    0.00 16942.3 16849.8   92.56
   15 114    38       0   31716  313566       0  313566  310065  3500.7    0.00  1067.7 16942.2    0.00 16942.2 16849.7   92.51
   15 115    39       0   31723  313549       0  313549  310066  3483.2    0.00  1068.0 16942.1    0.00 16942.1 16849.7   92.46
   15 116    40       0   31729  313530       0  313530  310066  3463.2    0.00  1068.2 16942.0    0.00 16942.0 16849.6   92.40
   15 117    41       0   31746  313507       0  313507  310067  3439.6    0.00  1068.8 16941.8    0.00 16941.8 16849.5   92.32
   15 118    42       0   31764  313476       0  313476  310070  3406.5    0.00  1069.4 16941.7    0.00 16941.7 16849.5   92.20
   15 119    43       0   31767  313443       0  313443  310072  3370.8    0.00  1069.5 16941.5    0.00 16941.5 16849.4   92.05
   15 120    44       0   31773  313410       0  313410  310075  3335.1    0.00  1069.7 16941.3    0.00 16941.3 16849.4   91.89
   15 121    45       0   31827  313378       0  313378  310077  3300.4    0.00  1071.8 16941.1    0.00 16941.1 16849.4   91.71
   15 122    46       0   31831  313358       0  313358  310078  3279.6    0.00  1071.9 16940.9    0.00 16940.9 16849.3   91.59
   15 123    47       0   31845  313340       0  313340  310079  3261.0    0.00  1072.4 16940.8    0.00 16940.8 16849.3   91.49
   15 124    48       0   31847  313320       0  313320  310080  3240.4    0.00  1072.5 16940.6    0.00 16940.6 16849.2   91.36
   15 125    49       0   31853  313288       0  313288  310081  3206.7    0.00  1072.7 16940.3    0.00 16940.3 16849.1   91.14
   15 126    50       0   31910  313255       0  313255  310082  3172.7    0.00  1074.8 16939.9    0.00 16939.9 16849.0   90.90
   15 127    51       0   31912  313225       0  313225  310081  3143.8    0.00  1074.9 16939.5    0.00 16939.5 16848.8   90.68
   15 128    52       0   31915  313192       0  313192  310080  3111.1    0.00  1074.9 16939.1    0.00 16939.1 16848.7   90.42
   15 129    53       0   31918  313162       0  313162  310079  3083.8    0.00  1075.0 16938.6    0.00 16938.6 16848.5   90.18
   15 130    54       0   31919  313138       0  313138  310076  3062.3    0.00  1075.0 16938.2    0.00 16938.2 16848.2   89.98
   15 131    55       0   31920  313119       0  313119  310073  3045.8    0.00  1075.1 16937.8    0.00 16937.8 16848.0   89.82
   15 132    56       0   31921  313102       0  313102  310069  3032.3    0.00  1075.1 16937.5    0.00 16937.5 16847.8   89.68
   15 133    57       0   31921  313085       0  313085  310065  3019.9    0.00  1075.1 16937.0    0.00 16937.0 16847.5   89.55
   15 134    58       0   31922  313067       0  313067  310060  3007.3    0.00  1075.1 16936.6    0.00 16936.6 16847.2   89.42
   15 135    59       0   31922  313050       0  313050  310055  2995.5    0.00  1075.1 16936.2    0.00 16936.2 16846.9   89.29
   15 136    60       0   31922  313034       0  313034  310050  2984.4    0.00  1075.1 16935.7    0.00 16935.7 16846.6   89.16
   15 137    61       0   31922  313019       0  313019  310045  2974.1    0.00  1075.1 16935.3    0.00 16935.3 16846.3   89.04
   15 138    62       0   31922  313004       0  313004  310040  2964.4    0.00  1075.1 16934.9    0.00 16934.9 16846.0   88.93
   15 139    63       0   31922  312991       0  312991  310036  2955.1    0.00  1075.1 16934.6    0.00 16934.6 16845.7   88.82
   15 140    64       0   31922  312977       0  312977  310031  2946.2    0.00  1075.1 16934.2    0.00 16934.2 16845.5   88.71
   15 141    65       0   31923  312964       0  312964  310027  2936.1    0.00  1075.1 16933.8    0.00 16933.8 16845.3   88.59
   15 142    66       0   31923  312949       0  312949  310025  2924.2    0.00  1075.1 16933.5    0.00 16933.5 16845.1   88.45
   15 143    67       0   31924  312934       0  312934  310022  2911.9    0.00  1075.1 16933.2    0.00 16933.2 16844.9   88.31
   15 144    68       0   31925  312922       0  312922  310020  2901.6    0.00  1075.2 16932.9    0.00 16932.9 16844.7   88.18
   15 145    69       0   31925  312910       0  312910  310018  2892.3    0.00  1075.2 16932.7    0.00 16932.7 16844.6   88.07
   15 146    70       0   31925  312898       0  312898  310015  2883.6    0.00  1075.2 16932.3    0.00 16932.3 16844.4   87.95
   15 147    71       0   31926  312887       0  312887  310011  2875.3    0.00  1075.2 16932.0    0.00 16932.0 16844.2   87.84
   15 148    72       0   31926  312875       0  312875  310008  2867.7    0.00  1075.2 16931.7    0.00 16931.7 16844.0   87.74
   15 149    73       0   31926  312865       0  312865  310004  2860.7    0.00  1075.2 16931.4    0.00 16931.4 16843.8   87.64
   15 150    74       0   31926  312854       0  312854  310000  2853.7    0.00  1075.2 16931.1    0.00 16931.1 16843.5   87.55
   15 151    75       0   31926  312842       0  312842  309996  2846.7    0.00  1075.2 16930.7    0.00 16930.7 16843.3   87.45
   15 152    76       0   31926  312830       0  312830  309991  2839.2    0.00  1075.2 16930.3    0.00 16930.3 16843.0   87.34
   15 153    77       0   31926  312801       0  312801  309988  2812.9    0.00  1075.2 16929.8    0.00 16929.8 16842.8   87.07
   15 154    78       0   31927  312769       0  312769  309986  2783.5    0.00  1075.2 16929.2    0.00 16929.2 16842.5   86.75
   15 155    79       0   31928  312734       0  312734  309983  2751.9    0.00  1075.3 16928.6    0.00 16928.6 16842.2   86.38
   15 156    80       0   31930  312699       0  312699  309979  2719.8    0.00  1075.3 16927.9    0.00 16927.9 16841.9   85.97
   15 157    81       0   31932  312662       0  312662  309975  2687.2    0.00  1075.4 16927.1    0.00 16927.1 16841.6   85.54
   15 158    82       0   31934  312615       0  312615  309973  2642.2    0.00  1075.4 16926.2    0.00 16926.2 16841.3   84.93
   15 159    83       0   31938  312569       0  312569  309971  2598.4    0.00  1075.5 16925.3    0.00 16925.3 16841.0   84.31
   15 160    84       0   31943  312512       0  312512  309972  2540.5    0.00  1075.7 16924.3    0.00 16924.3 16840.8   83.46
   15 161    85       0   31947  312462       0  312462  309973  2489.0    0.00  1075.8 16923.3    0.00 16923.3 16840.7   82.66
   15 162    86       0   31951  312420       0  312420  309972  2447.9    0.00  1076.0 16922.5    0.00 16922.5 16840.5   81.99
   15 163    87       0   31954  312383       0  312383  309971  2412.0    0.00  1076.1 16921.7    0.00 16921.7 16840.3   81.37
   15 164    88       0   31957  312349       0  312349  309969  2379.6    0.00  1076.2 16920.9    0.00 16920.9 16840.1   80.80
   15 165    89       0   31961  312313       0  312313  309968  2345.9    0.00  1076.3 16920.1    0.00 16920.1 16839.9   80.19
   15 166    90       0   31964  312274       0  312274  309966  2308.2    0.00  1076.4 16919.2    0.00 16919.2 16839.7   79.48
   15 167    91       0   31967  312240       0  312240  309962  2277.9    0.00  1076.5 16918.3    0.00 16918.3 16839.4   78.90
   15 168    92       0   31970  312203       0  312203  309959  2243.8    0.00  1076.6 16917.4    0.00 16917.4 16839.1   78.23
   15 169    93       0   31973  312169       0  312169  309957  2211.7    0.00  1076.7 16916.5    0.00 16916.5 16838.9   77.58
   15 170    94       0   31975  312140       0  312140  309954  2185.8    0.00  1076.8 16915.7    0.00 16915.7 16838.7   77.04
   15 171    95       0   31977  312112       0  312112  309953  2159.1    0.00  1076.9 16915.0    0.00 16915.0 16838.5   76.49
   15 172    96       0   31979  312086       0  312086  309951  2134.6    0.00  1076.9 16914.3    0.00 16914.3 16838.4   75.97
   15 173    97       0   31981  312061       0  312061  309949  2111.6    0.00  1077.0 16913.7    0.00 16913.7 16838.2   75.48
   15 174    98       0   31983  312036       0  312036  309947  2088.3    0.00  1077.1 16913.0    0.00 16913.0 16838.0   74.97
   15 175    99       0   31985  312011       0  312011  309945  2065.6    0.00  1077.2 16912.3    0.00 16912.3 16837.8   74.46
   15 176   100       0   31987  311986       0  311986  309943  2042.8    0.00  1077.2 16911.6    0.00 16911.6 16837.7   73.95
   15 177   101       0   31988  311961       0  311961  309941  2020.2    0.00  1077.3 16910.9    0.00 16910.9 16837.5   73.43
   15 178   102       0   31990  311936       0  311936  309938  1997.6    0.00  1077.4 16910.2    0.00 16910.2 16837.3   72.91
   15 179   103       0   31992  311910       0  311910  309935  1975.3    0.00  1077.4 16909.4    0.00 16909.4 16837.0   72.38
   15 180   104       0   31993  311883       0  311883  309931  1951.5    0.00  1077.5 16908.6    0.00 16908.6 16836.8   71.82
   15 181   105       0   31995  311854       0  311854  309927  1926.8    0.00  1077.5 16907.7    0.00 16907.7 16836.5   71.24
   15 182   106       0   31997  311825       0  311825  309922  1902.9    0.00  1077.6 16906.8    0.00 16906.8 16836.2   70.66
   15 183   107       0   31998  311799       0  311799  309917  1881.7    0.00  1077.7 16906.0    0.00 16906.0 16835.8   70.13
   15 184   108       0   31999  311774       0  311774  309911  1862.4    0.00  1077.7 16905.1    0.00 16905.1 16835.5   69.64
   15 185   109       0   32000  311750       0  311750  309905  1844.9    0.00  1077.8 16904.3    0.00 16904.3 16835.1   69.20
   15 186   110       0   32001  311727       0  311727  309898  1829.0    0.00  1077.8 16903.4    0.00 16903.4 16834.6   68.79
   15 187   111       0   32002  311706       0  311706  309891  1814.9    0.00  1077.8 16902.6    0.00 16902.6 16834.2   68.41
   15 188   112       0   32002  311686       0  311686  309885  1801.0    0.00  1077.9 16901.8    0.00 16901.8 16833.8   68.05
   15 189   113       0   32003  311657       0  311657  309879  1778.0    0.00  1077.9 16900.9    0.00 16900.9 16833.4   67.50
   15 190   114       0   32005  311625       0  311625  309876  1749.0    0.00  1077.9 16899.9    0.00 16899.9 16833.1   66.79
   15 191   115       0   32006  311595       0  311595  309872  1722.8    0.00  1078.0 16898.9    0.00 16898.9 16832.8   66.13
   15 192   116       0   32007  311572       0  311572  309869  1702.3    0.00  1078.0 16898.1    0.00 16898.1 16832.5   65.60
   15 193   117       0   32007  311553       0  311553  309866  1687.2    0.00  1078.1 16897.5    0.00 16897.5 16832.3   65.20
   15 194   118       0   32008  311539       0  311539  309862  1677.3    0.00  1078.1 16897.0    0.00 16897.0 16832.0   64.94
   15 195   119       0   32008  311527       0  311527  309859  1668.0    0.00  1078.1 16896.5    0.00 16896.5 16831.8   64.69
   15 196   120       0   32008  311513       0  311513  309854  1659.1    0.00  1078.1 16895.9    0.00 16895.9 16831.5   64.45
   15 197   121       0   32008  311501       0  311501  309850  1651.1    0.00  1078.1 16895.4    0.00 16895.4 16831.2   64.23
   15 198   122       0   32008  311489       0  311489  309845  1644.6    0.00  1078.1 16894.9    0.00 16894.9 16830.9   64.05
   15 199   123       0   32008  311479       0  311479  309840  1639.6    0.00  1078.1 16894.4    0.00 16894.4 16830.5   63.91
   15 200   124       0   32008  311470       0  311470  309835  1635.1    0.00  1078.1 16894.0    0.00 16894.0 16830.2   63.79
   15 201   125       0   32008  311460       0  311460  309830  1630.8    0.00  1078.1 16893.5    0.00 16893.5 16829.8   63.67
   15 202   126       0   32008  311452       0  311452  309824  1627.4    0.00  1078.1 16893.1    0.00 16893.1 16829.5   63.57
   15 203   127       0   32007  311444       0  311444  309819  1624.7    0.00  1078.1 16892.7    0.00 16892.7 16829.2   63.50
   15 204   128       0   32007  311437       0  311437  309814  1622.9    0.00  1078.1 16892.3    0.00 16892.3 16828.8   63.45
   15 205   129       0   32007  311428       0  311428  309809  1619.1    0.00  1078.1 16891.8    0.00 16891.8 16828.5   63.34
   15 206   130       0   32006  311420       0  311420  309804  1616.0    0.00  1078.1 16891.4    0.00 16891.4 16828.2   63.26
   15 207   131       0   32006  311413       0  311413  309800  1613.3    0.00  1078.0 16891.0    0.00 16891.0 16827.9   63.19
   15 208   132       0   32006  311405       0  311405  309795  1610.0    0.00  1078.0 16890.7    0.00 16890.7 16827.6   63.10
   15 209   133       0   32006  311395       0  311395  309792  1603.1    0.00  1078.0 16890.2    0.00 16890.2 16827.3   62.91
   15 210   134       0   32006  311387       0  311387  309789  1598.3    0.00  1078.0 16889.9    0.00 16889.9 16827.1   62.77
   15 211   135       0   32005  311380       0  311380  309785  1595.1    0.00  1078.0 16889.6    0.00 16889.6 16826.9   62.68
   15 212   136       0   32005  311375       0  311375  309782  1593.3    0.00  1078.0 16889.3    0.00 16889.3 16826.7   62.63
   15 213   137       0   32005  311371       0  311371  309779  1591.9    0.00  1078.0 16889.0    0.00 16889.0 16826.4   62.59
   15 214   138       0   32005  311366       0  311366  309775  1590.8    0.00  1078.0 16888.8    0.00 16888.8 16826.2   62.56
   15 215   139       0   32004  311362       0  311362  309772  1589.9    0.00  1078.0 16888.5    0.00 16888.5 16826.0   62.53
   15 216   140       0   32004  311357       0  311357  309768  1589.1    0.00  1078.0 16888.2    0.00 16888.2 16825.7   62.51
   15 217   141       0   32004  311353       0  311353  309764  1588.5    0.00  1078.0 16887.9    0.00 16887.9 16825.5   62.49
   15 218   142       0   32004  311348       0  311348  309760  1588.2    0.00  1078.0 16887.6    0.00 16887.6 16825.2   62.48
   15 219   143       0   32003  311343       0  311343  309755  1587.9    0.00  1078.0 16887.3    0.00 16887.3 16824.9   62.47
   15 220   144       0   32003  311337       0  311337  309750  1587.6    0.00  1077.9 16887.0    0.00 16887.0 16824.5   62.46
   15 221   145       0   32003  311330       0  311330  309745  1585.0    0.00  1077.9 16886.6    0.00 16886.6 16824.2   62.38
   15 222   146       0   32002  311322       0  311322  309739  1582.8    0.00  1077.9 16886.2    0.00 16886.2 16823.8   62.32
   15 223   147       0   32002  311315       0  311315  309734  1581.1    0.00  1077.9 16885.8    0.00 16885.8 16823.5   62.27
   15 224   148       0   32001  311308       0  311308  309728  1579.9    0.00  1077.9 16885.4    0.00 16885.4 16823.1   62.23
   15 225   149       0   32001  311302       0  311302  309723  1579.0    0.00  1077.9 16885.0    0.00 16885.0 16822.8   62.20
   15 226   150       0   32001  311296       0  311296  309717  1578.5    0.00  1077.9 16884.6    0.00 16884.6 16822.4   62.18
   15 227   151       0   32000  311283       0  311283  309713  1570.7    0.00  1077.9 16884.1    0.00 16884.1 16822.1   61.96
   15 228   152       0   32000  311271       0  311271  309708  1563.1    0.00  1077.9 16883.5    0.00 16883.5 16821.8   61.74
   15 229   153       0   32000  311256       0  311256  309705  1551.0    0.00  1077.9 16882.9    0.00 16882.9 16821.5   61.39
   15 230   154       0   32001  311240       0  311240  309702  1537.8    0.00  1077.9 16882.3    0.00 16882.3 16821.3   61.01
   15 231   155       0   32001  311223       0  311223  309699  1523.6    0.00  1077.9 16881.7    0.00 16881.7 16821.1   60.59
   15 232   156       0   32002  311209       0  311209  309697  1512.2    0.00  1077.9 16881.1    0.00 16881.1 16820.9   60.25
   15 233   157       0   32002  311197       0  311197  309695  1502.6    0.00  1077.9 16880.7    0.00 16880.7 16820.7   59.96
   15 234   158       0   32002  311186       0  311186  309692  1494.0    0.00  1077.9 16880.2    0.00 16880.2 16820.5   59.70
   15 235   159       0   32002  311175       0  311175  309689  1485.8    0.00  1078.0 16879.8    0.00 16879.8 16820.3   59.46
   15 236   160       0   32003  311163       0  311163  309687  1476.0    0.00  1078.0 16879.3    0.00 16879.3 16820.1   59.16
   15 237   161       0   32004  311139       0  311139  309685  1453.7    0.00  1078.0 16878.4    0.00 16878.4 16819.9   58.49

*DSSAT Cropping System Model Ver. 4.8.5.000 -release  MAR 01, 2026 09:34:20

*RUN   2        : 2                         WHAPS048 TUDU1501    2
 MODEL          : WHAPS048 - Wheat
 EXPERIMENT     : TUDU1501 WH
 DATA PATH      :
 TREATMENT  2   : 2                         WHAPS048
  
@YEAR DOY   DAS    OMAC    SCDD    SOCD    SC0D    SCTD   SOMCT    LCTD    ONAC    SNDD    SOND    SN0D    SNTD   SOMNT    LNTD
   15 076     0       0   31829  314106       0  314106  310026  4080.0    0.00  1072.8 16942.7    0.00 16942.7 16850.9   91.80
   15 077     1       0   31407  314076       0  314076  310028  4048.1    0.00  1056.6 16942.8    0.00 16942.8 16850.9   91.96
   15 078     2       0   31409  314050       0  314050  310030  4020.3    0.00  1056.7 16942.9    0.00 16942.9 16850.8   92.09
   15 079     3       0   31411  314030       0  314030  310031  3998.8    0.00  1056.7 16942.9    0.00 16942.9 16850.7   92.18
   15 080     4       0   31432  314016       0  314016  310032  3984.1    0.00  1057.5 16942.9    0.00 16942.9 16850.7   92.23
   15 081     5       0   31438  314007       0  314007  310033  3974.2    0.00  1057.7 16942.9    0.00 16942.9 16850.7   92.27
   15 082     6       0   31439  314004       0  314004  310033  3971.6    0.00  1057.7 16942.9    0.00 16942.9 16850.6   92.28
   15 083     7       0   31439  314004       0  314004  310033  3971.5    0.00  1057.7 16942.9    0.00 16942.9 16850.6   92.28
   15 084     8       0   31439  314004       0  314004  310032  3971.4    0.00  1057.7 16942.9    0.00 16942.9 16850.6   92.28
   15 085     9       0   31443  314002       0  314002  310032  3969.8    0.00  1057.9 16942.9    0.00 16942.9 16850.6   92.29
   15 086    10       0   31451  313999       0  313999  310032  3966.8    0.00  1058.2 16942.9    0.00 16942.9 16850.6   92.30
   15 087    11       0   31453  313994       0  313994  310033  3961.6    0.00  1058.2 16942.9    0.00 16942.9 16850.6   92.31
   15 088    12       0   31459  313986       0  313986  310033  3953.1    0.00  1058.5 16942.9    0.00 16942.9 16850.5   92.34
   15 089    13       0   31507  313975       0  313975  310033  3941.7    0.00  1060.3 16942.9    0.00 16942.9 16850.5   92.38
   15 090    14       0   31528  313964       0  313964  310034  3930.0    0.00  1061.1 16942.9    0.00 16942.9 16850.4   92.42
   15 091    15       0   31548  313952       0  313952  310035  3916.6    0.00  1061.9 16942.9    0.00 16942.9 16850.4   92.45
   15 092    16       0   31572  313943       0  313943  310036  3907.1    0.00  1062.8 16942.9    0.00 16942.9 16850.4   92.48
   15 093    17       0   31573  313938       0  313938  310036  3901.6    0.00  1062.8 16942.9    0.00 16942.9 16850.4   92.50
   15 094    18       0   31593  313937       0  313937  310036  3901.6    0.00  1063.5 16942.9    0.00 16942.9 16850.4   92.50
   15 095    19       0   31593  313937       0  313937  310036  3901.5    0.00  1063.5 16942.9    0.00 16942.9 16850.4   92.50
   15 096    20       0   31593  313937       0  313937  310036  3901.5    0.00  1063.6 16942.9    0.00 16942.9 16850.4   92.50
   15 097    21       0   31593  313937       0  313937  310036  3901.5    0.00  1063.6 16942.9    0.00 16942.9 16850.4   92.50
   15 098    22       0   31593  313937       0  313937  310036  3901.5    0.00  1063.6 16942.9    0.00 16942.9 16850.4   92.50
   15 099    23       0   31593  313937       0  313937  310036  3901.5    0.00  1063.6 16942.9    0.00 16942.9 16850.4   92.50
   15 100    24       0   31593  313937       0  313937  310036  3901.5    0.00  1063.6 16942.9    0.00 16942.9 16850.4   92.50
   15 101    25       0   31594  313929       0  313929  310037  3892.6    0.00  1063.6 16942.9    0.00 16942.9 16850.3   92.52
   15 102    26       0   31596  313911       0  313911  310038  3873.3    0.00  1063.6 16942.9    0.00 16942.9 16850.3   92.57
   15 103    27       0   31599  313885       0  313885  310040  3845.4    0.00  1063.7 16942.9    0.00 16942.9 16850.2   92.63
   15 104    28       0   31601  313856       0  313856  310042  3814.1    0.00  1063.7 16942.8    0.00 16942.8 16850.2   92.68
   15 105    29       0   31604  313826       0  313826  310043  3783.1    0.00  1063.8 16942.8    0.00 16942.8 16850.1   92.72
   15 106    30       0   31608  313796       0  313796  310045  3751.8    0.00  1063.9 16942.7    0.00 16942.7 16850.0   92.75
   15 107    31       0   31697  313765       0  313765  310045  3719.8    0.00  1067.3 16942.6    0.00 16942.6 16849.9   92.76
   15 108    32       0   31701  313719       0  313719  310050  3668.6    0.00  1067.4 16942.6    0.00 16942.6 16849.8   92.76
   15 109    33       0   31706  313676       0  313676  310055  3621.3    0.00  1067.5 16942.6    0.00 16942.6 16849.8   92.74
   15 110    34       0   31709  313640       0  313640  310059  3581.1    0.00  1067.6 16942.5    0.00 16942.5 16849.8   92.69
   15 111    35       0   31712  313614       0  313614  310062  3552.3    0.00  1067.6 16942.5    0.00 16942.5 16849.8   92.64
   15 112    36       0   31714  313596       0  313596  310063  3532.2    0.00  1067.7 16942.4    0.00 16942.4 16849.8   92.60
   15 113    37       0   31715  313578       0  313578  310065  3513.8    0.00  1067.7 16942.3    0.00 16942.3 16849.8   92.55
   15 114    38       0   31717  313562       0  313562  310066  3496.8    0.00  1067.7 16942.2    0.00 16942.2 16849.7   92.50
   15 115    39       0   31724  313545       0  313545  310066  3478.9    0.00  1068.0 16942.1    0.00 16942.1 16849.7   92.45
   15 116    40       0   31730  313526       0  313526  310067  3458.5    0.00  1068.2 16942.0    0.00 16942.0 16849.6   92.38
   15 117    41       0   31747  313503       0  313503  310068  3434.5    0.00  1068.8 16941.9    0.00 16941.9 16849.6   92.30
   15 118    42       0   31764  313472       0  313472  310071  3401.3    0.00  1069.5 16941.7    0.00 16941.7 16849.5   92.18
   15 119    43       0   31768  313438       0  313438  310073  3365.4    0.00  1069.5 16941.5    0.00 16941.5 16849.5   92.03
   15 120    44       0   31773  313405       0  313405  310076  3329.4    0.00  1069.7 16941.3    0.00 16941.3 16849.4   91.86
   15 121    45       0   31828  313373       0  313373  310078  3294.6    0.00  1071.8 16941.1    0.00 16941.1 16849.4   91.68
   15 122    46       0   31832  313353       0  313353  310079  3273.9    0.00  1071.9 16940.9    0.00 16940.9 16849.3   91.56
   15 123    47       0   31846  313335       0  313335  310080  3255.3    0.00  1072.4 16940.8    0.00 16940.8 16849.3   91.45
   15 124    48       0   31848  313315       0  313315  310081  3234.7    0.00  1072.5 16940.6    0.00 16940.6 16849.2   91.32
   15 125    49       0   31854  313283       0  313283  310082  3201.1    0.00  1072.7 16940.3    0.00 16940.3 16849.2   91.10
   15 126    50       0   31911  313250       0  313250  310083  3166.9    0.00  1074.8 16939.9    0.00 16939.9 16849.1   90.86
   15 127    51       0   31913  313220       0  313220  310082  3137.9    0.00  1074.9 16939.5    0.00 16939.5 16848.9   90.64
   15 128    52       0   31916  313187       0  313187  310082  3104.9    0.00  1075.0 16939.1    0.00 16939.1 16848.7   90.37
   15 129    53       0   31919  313157       0  313157  310080  3077.4    0.00  1075.0 16938.6    0.00 16938.6 16848.5   90.12
   15 130    54       0   31920  313133       0  313133  310077  3056.2    0.00  1075.1 16938.2    0.00 16938.2 16848.3   89.92
   15 131    55       0   31921  313114       0  313114  310074  3040.0    0.00  1075.1 16937.8    0.00 16937.8 16848.1   89.76
   15 132    56       0   31922  313097       0  313097  310071  3026.8    0.00  1075.1 16937.4    0.00 16937.4 16847.8   89.63
   15 133    57       0   31922  313081       0  313081  310066  3014.7    0.00  1075.1 16937.0    0.00 16937.0 16847.5   89.50
   15 134    58       0   31922  313063       0  313063  310061  3002.3    0.00  1075.1 16936.6    0.00 16936.6 16847.2   89.37
   15 135    59       0   31923  313046       0  313046  310056  2990.7    0.00  1075.1 16936.1    0.00 16936.1 16846.9   89.24
   15 136    60       0   31923  313030       0  313030  310051  2979.8    0.00  1075.1 16935.7    0.00 16935.7 16846.6   89.11
   15 137    61       0   31923  313015       0  313015  310045  2969.6    0.00  1075.1 16935.3    0.00 16935.3 16846.3   88.99
   15 138    62       0   31923  313001       0  313001  310041  2960.0    0.00  1075.1 16934.9    0.00 16934.9 16846.0   88.88
   15 139    63       0   31923  312987       0  312987  310036  2950.9    0.00  1075.1 16934.5    0.00 16934.5 16845.8   88.77
   15 140    64       0   31923  312974       0  312974  310032  2942.0    0.00  1075.1 16934.2    0.00 16934.2 16845.5   88.66
   15 141    65       0   31923  312960       0  312960  310028  2932.0    0.00  1075.1 16933.8    0.00 16933.8 16845.3   88.55
   15 142    66       0   31924  312945       0  312945  310025  2920.2    0.00  1075.1 16933.5    0.00 16933.5 16845.1   88.41
   15 143    67       0   31925  312931       0  312931  310023  2908.0    0.00  1075.2 16933.2    0.00 16933.2 16844.9   88.26
   15 144    68       0   31925  312919       0  312919  310021  2897.8    0.00  1075.2 16932.9    0.00 16932.9 16844.8   88.14
   15 145    69       0   31926  312907       0  312907  310019  2888.7    0.00  1075.2 16932.6    0.00 16932.6 16844.6   88.02
   15 146    70       0   31926  312896       0  312896  310015  2880.1    0.00  1075.2 16932.3    0.00 16932.3 16844.4   87.91
   15 147    71       0   31926  312884       0  312884  310012  2872.0    0.00  1075.2 16932.0    0.00 16932.0 16844.2   87.80
   15 148    72       0   31926  312873       0  312873  310008  2864.6    0.00  1075.2 16931.7    0.00 16931.7 16844.0   87.70
   15 149    73       0   31926  312862       0  312862  310005  2857.7    0.00  1075.2 16931.4    0.00 16931.4 16843.8   87.61
   15 150    74       0   31926  312851       0  312851  310000  2851.0    0.00  1075.2 16931.0    0.00 16931.0 16843.5   87.51
   15 151    75       0   31926  312840       0  312840  309996  2844.1    0.00  1075.2 16930.7    0.00 16930.7 16843.3   87.41
   15 152    76       0   31926  312828       0  312828  309991  2836.7    0.00  1075.2 16930.3    0.00 16930.3 16843.0   87.30
   15 153    77       0   31927  312799       0  312799  309989  2810.5    0.00  1075.2 16929.8    0.00 16929.8 16842.8   87.04
   15 154    78       0   31928  312767       0  312767  309986  2780.6    0.00  1075.2 16929.2    0.00 16929.2 16842.5   86.71
   15 155    79       0   31929  312731       0  312731  309983  2748.2    0.00  1075.3 16928.6    0.00 16928.6 16842.2   86.33
   15 156    80       0   31931  312695       0  312695  309980  2715.0    0.00  1075.3 16927.8    0.00 16927.8 16841.9   85.91
   15 157    81       0   31933  312657       0  312657  309976  2681.3    0.00  1075.4 16927.1    0.00 16927.1 16841.6   85.46
   15 158    82       0   31935  312609       0  312609  309974  2635.2    0.00  1075.5 16926.2    0.00 16926.2 16841.3   84.84
   15 159    83       0   31939  312564       0  312564  309972  2591.4    0.00  1075.6 16925.3    0.00 16925.3 16841.0   84.21
   15 160    84       0   31944  312507       0  312507  309973  2533.5    0.00  1075.7 16924.2    0.00 16924.2 16840.9   83.35
   15 161    85       0   31948  312456       0  312456  309974  2482.2    0.00  1075.9 16923.3    0.00 16923.3 16840.7   82.55
   15 162    86       0   31952  312413       0  312413  309974  2439.1    0.00  1076.0 16922.4    0.00 16922.4 16840.6   81.84
   15 163    87       0   31956  312375       0  312375  309973  2402.4    0.00  1076.1 16921.6    0.00 16921.6 16840.4   81.21
   15 164    88       0   31959  312341       0  312341  309971  2369.6    0.00  1076.2 16920.8    0.00 16920.8 16840.2   80.63
   15 165    89       0   31962  312305       0  312305  309970  2335.6    0.00  1076.3 16920.0    0.00 16920.0 16840.0   80.01
   15 166    90       0   31965  312265       0  312265  309968  2297.7    0.00  1076.5 16919.0    0.00 16919.0 16839.7   79.29
   15 167    91       0   31968  312231       0  312231  309964  2267.2    0.00  1076.5 16918.2    0.00 16918.2 16839.5   78.70
   15 168    92       0   31971  312194       0  312194  309961  2232.8    0.00  1076.7 16917.2    0.00 16917.2 16839.2   78.02
   15 169    93       0   31974  312160       0  312160  309959  2200.5    0.00  1076.8 16916.3    0.00 16916.3 16839.0   77.36
   15 170    94       0   31976  312131       0  312131  309956  2174.3    0.00  1076.8 16915.6    0.00 16915.6 16838.8   76.82
   15 171    95       0   31978  312102       0  312102  309955  2147.1    0.00  1076.9 16914.9    0.00 16914.9 16838.6   76.26
   15 172    96       0   31980  312076       0  312076  309953  2122.2    0.00  1077.0 16914.2    0.00 16914.2 16838.4   75.73
   15 173    97       0   31982  312050       0  312050  309952  2098.7    0.00  1077.1 16913.5    0.00 16913.5 16838.3   75.22
   15 174    98       0   31984  312025       0  312025  309950  2074.9    0.00  1077.1 16912.8    0.00 16912.8 16838.1   74.70
   15 175    99       0   31986  312000       0  312000  309948  2051.7    0.00  1077.2 16912.1    0.00 16912.1 16837.9   74.18
   15 176   100       0   31988  311975       0  311975  309946  2028.5    0.00  1077.3 16911.4    0.00 16911.4 16837.8   73.65
   15 177   101       0   31990  311949       0  311949  309944  2005.3    0.00  1077.3 16910.7    0.00 16910.7 16837.6   73.12
   15 178   102       0   31991  311923       0  311923  309941  1982.0    0.00  1077.4 16909.9    0.00 16909.9 16837.4   72.58
   15 179   103       0   31993  311897       0  311897  309938  1958.8    0.00  1077.5 16909.2    0.00 16909.2 16837.1   72.03
   15 180   104       0   31995  311868       0  311868  309935  1933.7    0.00  1077.5 16908.3    0.00 16908.3 16836.9   71.44
   15 181   105       0   31996  311840       0  311840  309931  1909.3    0.00  1077.6 16907.5    0.00 16907.5 16836.6   70.85
   15 182   106       0   31998  311812       0  311812  309926  1885.6    0.00  1077.7 16906.6    0.00 16906.6 16836.3   70.27
   15 183   107       0   31999  311785       0  311785  309920  1864.6    0.00  1077.7 16905.7    0.00 16905.7 16836.0   69.75
   15 184   108       0   32000  311760       0  311760  309915  1845.5    0.00  1077.8 16904.8    0.00 16904.8 16835.6   69.26
   15 185   109       0   32001  311737       0  311737  309908  1828.2    0.00  1077.8 16904.0    0.00 16904.0 16835.2   68.82
   15 186   110       0   32002  311714       0  311714  309902  1812.4    0.00  1077.8 16903.2    0.00 16903.2 16834.8   68.40
   15 187   111       0   32003  311693       0  311693  309895  1798.4    0.00  1077.9 16902.4    0.00 16902.4 16834.3   68.03
   15 188   112       0   32004  311673       0  311673  309888  1784.7    0.00  1077.9 16901.6    0.00 16901.6 16833.9   67.67
   15 189   113       0   32004  311644       0  311644  309882  1762.1    0.00  1077.9 16900.6    0.00 16900.6 16833.5   67.12
   15 190   114       0   32006  311612       0  311612  309879  1733.6    0.00  1078.0 16899.6    0.00 16899.6 16833.2   66.41
   15 191   115       0   32007  311583       0  311583  309875  1707.9    0.00  1078.0 16898.7    0.00 16898.7 16832.9   65.75
   15 192   116       0   32008  311560       0  311560  309872  1687.7    0.00  1078.1 16897.9    0.00 16897.9 16832.7   65.23
   15 193   117       0   32008  311541       0  311541  309869  1672.8    0.00  1078.1 16897.2    0.00 16897.2 16832.4   64.83
   15 194   118       0   32009  311528       0  311528  309865  1663.1    0.00  1078.1 16896.7    0.00 16896.7 16832.1   64.57
   15 195   119       0   32009  311515       0  311515  309861  1654.0    0.00  1078.1 16896.2    0.00 16896.2 16831.9   64.32
   15 196   120       0   32009  311502       0  311502  309857  1645.2    0.00  1078.1 16895.7    0.00 16895.7 16831.6   64.08
   15 197   121       0   32009  311490       0  311490  309853  1637.3    0.00  1078.2 16895.2    0.00 16895.2 16831.3   63.87
   15 198   122       0   32009  311479       0  311479  309848  1630.9    0.00  1078.2 16894.7    0.00 16894.7 16831.0   63.69
   15 199   123       0   32009  311469       0  311469  309843  1625.9    0.00  1078.2 16894.2    0.00 16894.2 16830.6   63.55
   15 200   124       0   32009  311459       0  311459  309837  1621.6    0.00  1078.1 16893.7    0.00 16893.7 16830.3   63.43
   15 201   125       0   32009  311450       0  311450  309832  1617.3    0.00  1078.1 16893.3    0.00 16893.3 16829.9   63.31
   15 202   126       0   32009  311441       0  311441  309827  1614.0    0.00  1078.1 16892.8    0.00 16892.8 16829.6   63.21
   15 203   127       0   32008  311433       0  311433  309822  1611.4    0.00  1078.1 16892.4    0.00 16892.4 16829.3   63.14
   15 204   128       0   32008  311426       0  311426  309817  1609.5    0.00  1078.1 16892.0    0.00 16892.0 16828.9   63.09
   15 205   129       0   32008  311418       0  311418  309812  1605.8    0.00  1078.1 16891.6    0.00 16891.6 16828.6   62.99
   15 206   130       0   32007  311410       0  311410  309807  1602.8    0.00  1078.1 16891.2    0.00 16891.2 16828.3   62.90
   15 207   131       0   32007  311402       0  311402  309802  1600.2    0.00  1078.1 16890.8    0.00 16890.8 16828.0   62.83
   15 208   132       0   32007  311395       0  311395  309798  1597.0    0.00  1078.1 16890.4    0.00 16890.4 16827.7   62.74
   15 209   133       0   32007  311385       0  311385  309795  1590.2    0.00  1078.1 16890.0    0.00 16890.0 16827.4   62.55
   15 210   134       0   32007  311377       0  311377  309791  1585.5    0.00  1078.1 16889.6    0.00 16889.6 16827.2   62.42
   15 211   135       0   32006  311370       0  311370  309788  1582.3    0.00  1078.1 16889.3    0.00 16889.3 16827.0   62.33
   15 212   136       0   32006  311365       0  311365  309785  1580.6    0.00  1078.1 16889.0    0.00 16889.0 16826.8   62.28
   15 213   137       0   32006  311360       0  311360  309781  1579.3    0.00  1078.1 16888.8    0.00 16888.8 16826.5   62.24
   15 214   138       0   32006  311356       0  311356  309778  1578.2    0.00  1078.0 16888.5    0.00 16888.5 16826.3   62.21
   15 215   139       0   32006  311352       0  311352  309774  1577.2    0.00  1078.0 16888.3    0.00 16888.3 16826.1   62.18
   15 216   140       0   32005  311347       0  311347  309771  1576.5    0.00  1078.0 16888.0    0.00 16888.0 16825.8   62.15
   15 217   141       0   32005  311343       0  311343  309767  1575.9    0.00  1078.0 16887.7    0.00 16887.7 16825.6   62.14
   15 218   142       0   32005  311338       0  311338  309762  1575.6    0.00  1078.0 16887.4    0.00 16887.4 16825.3   62.13
   15 219   143       0   32004  311333       0  311333  309757  1575.3    0.00  1078.0 16887.1    0.00 16887.1 16825.0   62.11
   15 220   144       0   32004  311327       0  311327  309752  1575.0    0.00  1078.0 16886.7    0.00 16886.7 16824.6   62.10
   15 221   145       0   32004  311320       0  311320  309747  1572.5    0.00  1078.0 16886.3    0.00 16886.3 16824.3   62.03
   15 222   146       0   32003  311312       0  311312  309742  1570.3    0.00  1078.0 16885.9    0.00 16885.9 16824.0   61.97
   15 223   147       0   32003  311305       0  311305  309736  1568.7    0.00  1077.9 16885.5    0.00 16885.5 16823.6   61.92
   15 224   148       0   32002  311298       0  311298  309731  1567.4    0.00  1077.9 16885.1    0.00 16885.1 16823.2   61.88
   15 225   149       0   32002  311292       0  311292  309725  1566.6    0.00  1077.9 16884.7    0.00 16884.7 16822.9   61.85
   15 226   150       0   32002  311286       0  311286  309720  1566.1    0.00  1077.9 16884.4    0.00 16884.4 16822.5   61.83
   15 227   151       0   32001  311274       0  311274  309715  1558.4    0.00  1077.9 16883.8    0.00 16883.8 16822.2   61.61
   15 228   152       0   32001  311262       0  311262  309711  1551.0    0.00  1077.9 16883.3    0.00 16883.3 16821.9   61.40
   15 229   153       0   32001  311246       0  311246  309707  1539.1    0.00  1077.9 16882.7    0.00 16882.7 16821.6   61.05
   15 230   154       0   32002  311230       0  311230  309704  1526.2    0.00  1077.9 16882.0    0.00 16882.0 16821.4   60.67
   15 231   155       0   32002  311214       0  311214  309702  1512.2    0.00  1077.9 16881.4    0.00 16881.4 16821.2   60.25
   15 232   156       0   32003  311200       0  311200  309699  1501.0    0.00  1078.0 16880.9    0.00 16880.9 16821.0   59.92
   15 233   157       0   32003  311188       0  311188  309697  1491.5    0.00  1078.0 16880.4    0.00 16880.4 16820.8   59.63
   15 234   158       0   32003  311177       0  311177  309694  1483.0    0.00  1078.0 16880.0    0.00 16880.0 16820.6   59.37
   15 235   159       0   32003  311167       0  311167  309692  1475.0    0.00  1078.0 16879.5    0.00 16879.5 16820.4   59.13
   15 236   160       0   32004  311154       0  311154  309689  1465.3    0.00  1078.0 16879.0    0.00 16879.0 16820.2   58.83
   15 237   161       0   32005  311131       0  311131  309688  1443.2    0.00  1078.1 16878.2    0.00 16878.2 16820.0   58.17

*DSSAT Cropping System Model Ver. 4.8.5.000 -release  MAR 01, 2026 09:34:20

*RUN   3        : 3                         WHAPS048 TUDU1501    3
 MODEL          : WHAPS048 - Wheat
 EXPERIMENT     : TUDU1501 WH
 DATA PATH      :
 TREATMENT  3   : 3                         WHAPS048
  
@YEAR DOY   DAS    OMAC    SCDD    SOCD    SC0D    SCTD   SOMCT    LCTD    ONAC    SNDD    SOND    SN0D    SNTD   SOMNT    LNTD
   15 076     0       0   31829  314106       0  314106  310026  4080.0    0.00  1072.8 16942.7    0.00 16942.7 16850.9   91.80
   15 077     1       0   31407  314076       0  314076  310028  4048.1    0.00  1056.6 16942.8    0.00 16942.8 16850.9   91.96
   15 078     2       0   31409  314050       0  314050  310030  4020.3    0.00  1056.7 16942.9    0.00 16942.9 16850.8   92.09
   15 079     3       0   31411  314030       0  314030  310031  3998.8    0.00  1056.7 16942.9    0.00 16942.9 16850.7   92.18
   15 080     4       0   31432  314016       0  314016  310032  3984.1    0.00  1057.5 16942.9    0.00 16942.9 16850.7   92.23
   15 081     5       0   31438  314007       0  314007  310033  3974.2    0.00  1057.7 16942.9    0.00 16942.9 16850.7   92.27
   15 082     6       0   31439  314004       0  314004  310033  3971.6    0.00  1057.7 16942.9    0.00 16942.9 16850.6   92.28
   15 083     7       0   31439  314004       0  314004  310033  3971.5    0.00  1057.7 16942.9    0.00 16942.9 16850.6   92.28
   15 084     8       0   31439  314004       0  314004  310032  3971.4    0.00  1057.7 16942.9    0.00 16942.9 16850.6   92.28
   15 085     9       0   31443  314002       0  314002  310032  3969.8    0.00  1057.9 16942.9    0.00 16942.9 16850.6   92.29
   15 086    10       0   31451  313999       0  313999  310032  3966.8    0.00  1058.2 16942.9    0.00 16942.9 16850.6   92.30
   15 087    11       0   31453  313994       0  313994  310033  3961.6    0.00  1058.2 16942.9    0.00 16942.9 16850.6   92.31
   15 088    12       0   31459  313986       0  313986  310033  3953.1    0.00  1058.5 16942.9    0.00 16942.9 16850.5   92.34
   15 089    13       0   31507  313975       0  313975  310033  3941.7    0.00  1060.3 16942.9    0.00 16942.9 16850.5   92.38
   15 090    14       0   31528  313964       0  313964  310034  3930.0    0.00  1061.1 16942.9    0.00 16942.9 16850.4   92.42
   15 091    15       0   31548  313952       0  313952  310035  3916.6    0.00  1061.9 16942.9    0.00 16942.9 16850.4   92.45
   15 092    16       0   31572  313943       0  313943  310036  3907.1    0.00  1062.8 16942.9    0.00 16942.9 16850.4   92.48
   15 093    17       0   31573  313938       0  313938  310036  3901.6    0.00  1062.8 16942.9    0.00 16942.9 16850.4   92.50
   15 094    18       0   31593  313937       0  313937  310036  3901.6    0.00  1063.5 16942.9    0.00 16942.9 16850.4   92.50
   15 095    19       0   31593  313937       0  313937  310036  3901.5    0.00  1063.5 16942.9    0.00 16942.9 16850.4   92.50
   15 096    20       0   31593  313937       0  313937  310036  3901.5    0.00  1063.6 16942.9    0.00 16942.9 16850.4   92.50
   15 097    21       0   31593  313937       0  313937  310036  3901.5    0.00  1063.6 16942.9    0.00 16942.9 16850.4   92.50
   15 098    22       0   31593  313937       0  313937  310036  3901.5    0.00  1063.6 16942.9    0.00 16942.9 16850.4   92.50
   15 099    23       0   31593  313937       0  313937  310036  3901.5    0.00  1063.6 16942.9    0.00 16942.9 16850.4   92.50
   15 100    24       0   31593  313937       0  313937  310036  3901.5    0.00  1063.6 16942.9    0.00 16942.9 16850.4   92.50
   15 101    25       0   31594  313930       0  313930  310036  3893.5    0.00  1063.6 16942.8    0.00 16942.8 16850.3   92.52
   15 102    26       0   31596  313913       0  313913  310037  3876.0    0.00  1063.6 16942.8    0.00 16942.8 16850.3   92.56
   15 103    27       0   31598  313889       0  313889  310039  3850.4    0.00  1063.7 16942.8    0.00 16942.8 16850.2   92.61
   15 104    28       0   31601  313862       0  313862  310040  3821.6    0.00  1063.7 16942.8    0.00 16942.8 16850.1   92.67
   15 105    29       0   31604  313834       0  313834  310041  3792.6    0.00  1063.8 16942.7    0.00 16942.7 16850.0   92.70
   15 106    30       0   31607  313805       0  313805  310042  3762.9    0.00  1063.9 16942.7    0.00 16942.7 16849.9   92.73
   15 107    31       0   31696  313775       0  313775  310043  3732.0    0.00  1067.2 16942.5    0.00 16942.5 16849.8   92.74
   15 108    32       0   31699  313739       0  313739  310045  3693.3    0.00  1067.3 16942.4    0.00 16942.4 16849.7   92.75
   15 109    33       0   31703  313705       0  313705  310048  3656.8    0.00  1067.4 16942.4    0.00 16942.4 16849.6   92.74
   15 110    34       0   31705  313677       0  313677  310050  3627.5    0.00  1067.4 16942.3    0.00 16942.3 16849.6   92.71
   15 111    35       0   31707  313656       0  313656  310051  3605.3    0.00  1067.5 16942.2    0.00 16942.2 16849.5   92.68
   15 112    36       0   31709  313641       0  313641  310052  3588.5    0.00  1067.5 16942.2    0.00 16942.2 16849.5   92.66
   15 113    37       0   31710  313625       0  313625  310053  3572.5    0.00  1067.6 16942.1    0.00 16942.1 16849.5   92.63
   15 114    38       0   31712  313611       0  313611  310054  3557.1    0.00  1067.6 16942.0    0.00 16942.0 16849.4   92.59
   15 115    39       0   31718  313595       0  313595  310054  3540.8    0.00  1067.8 16941.9    0.00 16941.9 16849.4   92.55
   15 116    40       0   31724  313577       0  313577  310054  3523.0    0.00  1068.0 16941.8    0.00 16941.8 16849.3   92.50
   15 117    41       0   31740  313558       0  313558  310054  3503.2    0.00  1068.6 16941.6    0.00 16941.6 16849.2   92.44
   15 118    42       0   31758  313535       0  313535  310055  3480.3    0.00  1069.3 16941.5    0.00 16941.5 16849.1   92.36
   15 119    43       0   31759  313515       0  313515  310054  3461.7    0.00  1069.3 16941.2    0.00 16941.2 16849.0   92.28
   15 120    44       0   31763  313498       0  313498  310053  3445.0    0.00  1069.4 16941.0    0.00 16941.0 16848.8   92.21
   15 121    45       0   31816  313480       0  313480  310052  3428.1    0.00  1071.4 16940.8    0.00 16940.8 16848.7   92.13
   15 122    46       0   31819  313467       0  313467  310051  3416.5    0.00  1071.5 16940.7    0.00 16940.7 16848.6   92.07
   15 123    47       0   31833  313456       0  313456  310050  3405.7    0.00  1072.1 16940.5    0.00 16940.5 16848.5   92.02
   15 124    48       0   31833  313444       0  313444  310048  3395.8    0.00  1072.1 16940.3    0.00 16940.3 16848.4   91.97
   15 125    49       0   31837  313430       0  313430  310046  3384.9    0.00  1072.2 16940.1    0.00 16940.1 16848.2   91.90
   15 126    50       0   31891  313415       0  313415  310042  3373.1    0.00  1074.3 16939.8    0.00 16939.8 16847.9   91.83
   15 127    51       0   31891  313399       0  313399  310037  3362.2    0.00  1074.3 16939.4    0.00 16939.4 16847.6   91.76
   15 128    52       0   31892  313382       0  313382  310033  3349.6    0.00  1074.3 16939.0    0.00 16939.0 16847.4   91.68
   15 129    53       0   31892  313364       0  313364  310028  3336.5    0.00  1074.3 16938.6    0.00 16938.6 16847.1   91.59
   15 130    54       0   31892  313347       0  313347  310023  3323.8    0.00  1074.3 16938.3    0.00 16938.3 16846.8   91.49
   15 131    55       0   31892  313331       0  313331  310020  3311.7    0.00  1074.3 16937.9    0.00 16937.9 16846.5   91.40
   15 132    56       0   31893  313316       0  313316  310016  3300.0    0.00  1074.3 16937.6    0.00 16937.6 16846.3   91.31
   15 133    57       0   31893  313299       0  313299  310011  3288.1    0.00  1074.3 16937.2    0.00 16937.2 16846.0   91.21
   15 134    58       0   31893  313282       0  313282  310006  3275.8    0.00  1074.3 16936.8    0.00 16936.8 16845.7   91.11
   15 135    59       0   31893  313264       0  313264  310001  3263.4    0.00  1074.3 16936.4    0.00 16936.4 16845.4   91.00
   15 136    60       0   31894  313248       0  313248  309996  3251.5    0.00  1074.3 16936.0    0.00 16936.0 16845.1   90.90
   15 137    61       0   31894  313231       0  313231  309991  3240.1    0.00  1074.3 16935.6    0.00 16935.6 16844.8   90.80
   15 138    62       0   31894  313216       0  313216  309987  3229.1    0.00  1074.3 16935.2    0.00 16935.2 16844.5   90.69
   15 139    63       0   31894  313201       0  313201  309983  3218.6    0.00  1074.3 16934.8    0.00 16934.8 16844.2   90.59
   15 140    64       0   31895  313187       0  313187  309978  3208.4    0.00  1074.3 16934.5    0.00 16934.5 16844.0   90.50
   15 141    65       0   31895  313173       0  313173  309975  3197.8    0.00  1074.3 16934.1    0.00 16934.1 16843.7   90.40
   15 142    66       0   31896  313158       0  313158  309972  3185.9    0.00  1074.3 16933.8    0.00 16933.8 16843.5   90.30
   15 143    67       0   31896  313143       0  313143  309970  3173.8    0.00  1074.3 16933.6    0.00 16933.6 16843.4   90.19
   15 144    68       0   31897  313130       0  313130  309968  3162.6    0.00  1074.4 16933.3    0.00 16933.3 16843.2   90.08
   15 145    69       0   31898  313118       0  313118  309966  3151.8    0.00  1074.4 16933.1    0.00 16933.1 16843.1   89.98
   15 146    70       0   31899  313104       0  313104  309963  3141.0    0.00  1074.4 16932.8    0.00 16932.8 16842.9   89.88
   15 147    71       0   31899  313090       0  313090  309960  3130.2    0.00  1074.4 16932.5    0.00 16932.5 16842.7   89.76
   15 148    72       0   31900  313077       0  313077  309957  3119.7    0.00  1074.4 16932.2    0.00 16932.2 16842.5   89.65
   15 149    73       0   31900  313063       0  313063  309954  3109.5    0.00  1074.4 16931.8    0.00 16931.8 16842.3   89.54
   15 150    74       0   31901  313049       0  313049  309950  3098.9    0.00  1074.5 16931.5    0.00 16931.5 16842.1   89.43
   15 151    75       0   31901  313035       0  313035  309947  3087.8    0.00  1074.5 16931.2    0.00 16931.2 16841.9   89.30
   15 152    76       0   31902  313019       0  313019  309943  3076.0    0.00  1074.5 16930.8    0.00 16930.8 16841.6   89.17
   15 153    77       0   31902  313001       0  313001  309938  3062.8    0.00  1074.5 16930.3    0.00 16930.3 16841.3   89.02
   15 154    78       0   31903  312980       0  312980  309933  3047.7    0.00  1074.5 16929.8    0.00 16929.8 16841.0   88.85
   15 155    79       0   31904  312957       0  312957  309927  3030.5    0.00  1074.5 16929.2    0.00 16929.2 16840.6   88.65
   15 156    80       0   31905  312932       0  312932  309921  3010.9    0.00  1074.5 16928.6    0.00 16928.6 16840.2   88.42
   15 157    81       0   31906  312903       0  312903  309915  2988.1    0.00  1074.6 16928.0    0.00 16928.0 16839.8   88.16
   15 158    82       0   31908  312871       0  312871  309909  2961.6    0.00  1074.6 16927.2    0.00 16927.2 16839.4   87.85
   15 159    83       0   31910  312835       0  312835  309904  2930.9    0.00  1074.7 16926.5    0.00 16926.5 16839.0   87.48
   15 160    84       0   31913  312795       0  312795  309900  2895.1    0.00  1074.8 16925.7    0.00 16925.7 16838.7   87.03
   15 161    85       0   31917  312753       0  312753  309898  2854.9    0.00  1074.9 16924.9    0.00 16924.9 16838.4   86.52
   15 162    86       0   31921  312714       0  312714  309897  2817.5    0.00  1075.0 16924.2    0.00 16924.2 16838.2   86.01
   15 163    87       0   31925  312678       0  312678  309895  2783.0    0.00  1075.1 16923.5    0.00 16923.5 16838.0   85.52
   15 164    88       0   31928  312644       0  312644  309893  2750.8    0.00  1075.3 16922.8    0.00 16922.8 16837.8   85.03
   15 165    89       0   31931  312608       0  312608  309891  2716.9    0.00  1075.4 16922.0    0.00 16922.0 16837.5   84.50
   15 166    90       0   31935  312567       0  312567  309888  2678.8    0.00  1075.5 16921.2    0.00 16921.2 16837.3   83.89
   15 167    91       0   31938  312533       0  312533  309884  2648.6    0.00  1075.6 16920.3    0.00 16920.3 16836.9   83.39
   15 168    92       0   31941  312497       0  312497  309881  2615.2    0.00  1075.7 16919.5    0.00 16919.5 16836.7   82.82
   15 169    93       0   31944  312462       0  312462  309879  2583.6    0.00  1075.8 16918.7    0.00 16918.7 16836.4   82.27
   15 170    94       0   31946  312435       0  312435  309876  2558.9    0.00  1075.9 16918.0    0.00 16918.0 16836.2   81.82
   15 171    95       0   31948  312409       0  312409  309874  2535.2    0.00  1075.9 16917.4    0.00 16917.4 16836.0   81.38
   15 172    96       0   31951  312384       0  312384  309872  2512.9    0.00  1076.0 16916.8    0.00 16916.8 16835.8   80.97
   15 173    97       0   31953  312361       0  312361  309869  2491.8    0.00  1076.1 16916.2    0.00 16916.2 16835.6   80.56
   15 174    98       0   31955  312337       0  312337  309867  2470.4    0.00  1076.1 16915.6    0.00 16915.6 16835.4   80.14
   15 175    99       0   31956  312314       0  312314  309865  2449.6    0.00  1076.2 16915.0    0.00 16915.0 16835.3   79.72
   15 176   100       0   31958  312291       0  312291  309862  2428.9    0.00  1076.3 16914.3    0.00 16914.3 16835.1   79.29
   15 177   101       0   31960  312268       0  312268  309859  2408.4    0.00  1076.4 16913.7    0.00 16913.7 16834.8   78.86
   15 178   102       0   31962  312244       0  312244  309856  2387.7    0.00  1076.4 16913.0    0.00 16913.0 16834.6   78.43
   15 179   103       0   31964  312220       0  312220  309853  2367.2    0.00  1076.5 16912.3    0.00 16912.3 16834.4   77.99
   15 180   104       0   31966  312194       0  312194  309849  2345.4    0.00  1076.6 16911.6    0.00 16911.6 16834.1   77.53
   15 181   105       0   31967  312167       0  312167  309844  2322.6    0.00  1076.6 16910.8    0.00 16910.8 16833.8   77.04
   15 182   106       0   31969  312138       0  312138  309839  2298.5    0.00  1076.7 16910.0    0.00 16910.0 16833.5   76.53
   15 183   107       0   31971  312109       0  312109  309834  2274.4    0.00  1076.8 16909.1    0.00 16909.1 16833.1   76.03
   15 184   108       0   31973  312078       0  312078  309829  2249.3    0.00  1076.8 16908.2    0.00 16908.2 16832.7   75.52
   15 185   109       0   31974  312048       0  312048  309822  2226.0    0.00  1076.9 16907.4    0.00 16907.4 16832.3   75.04
   15 186   110       0   31976  312020       0  312020  309815  2204.5    0.00  1076.9 16906.4    0.00 16906.4 16831.9   74.58
   15 187   111       0   31977  311993       0  311993  309807  2185.3    0.00  1077.0 16905.5    0.00 16905.5 16831.4   74.15
   15 188   112       0   31978  311965       0  311965  309800  2164.9    0.00  1077.0 16904.6    0.00 16904.6 16830.9   73.73
   15 189   113       0   31980  311921       0  311921  309795  2125.8    0.00  1077.1 16903.7    0.00 16903.7 16830.5   73.18
   15 190   114       0   31982  311870       0  311870  309793  2076.5    0.00  1077.2 16902.6    0.00 16902.6 16830.2   72.48
   15 191   115       0   31985  311825       0  311825  309791  2033.5    0.00  1077.2 16901.7    0.00 16901.7 16829.9   71.82
   15 192   116       0   31986  311790       0  311790  309789  2000.9    0.00  1077.3 16900.9    0.00 16900.9 16829.6   71.27
   15 193   117       0   31987  311761       0  311761  309786  1975.4    0.00  1077.4 16900.2    0.00 16900.2 16829.3   70.82
   15 194   118       0   31988  311738       0  311738  309782  1956.4    0.00  1077.4 16899.5    0.00 16899.5 16829.1   70.46
   15 195   119       0   31989  311717       0  311717  309778  1938.4    0.00  1077.4 16898.9    0.00 16898.9 16828.8   70.11
   15 196   120       0   31990  311694       0  311694  309774  1920.8    0.00  1077.4 16898.2    0.00 16898.2 16828.4   69.76
   15 197   121       0   31990  311673       0  311673  309768  1904.4    0.00  1077.5 16897.5    0.00 16897.5 16828.1   69.41
   15 198   122       0   31991  311652       0  311652  309762  1889.9    0.00  1077.5 16896.8    0.00 16896.8 16827.7   69.09
   15 199   123       0   31991  311633       0  311633  309756  1877.4    0.00  1077.5 16896.1    0.00 16896.1 16827.3   68.81
   15 200   124       0   31992  311615       0  311615  309749  1865.4    0.00  1077.5 16895.4    0.00 16895.4 16826.8   68.54
   15 201   125       0   31992  311596       0  311596  309743  1853.5    0.00  1077.5 16894.7    0.00 16894.7 16826.4   68.28
   15 202   126       0   31992  311579       0  311579  309736  1843.3    0.00  1077.5 16894.0    0.00 16894.0 16825.9   68.04
   15 203   127       0   31992  311563       0  311563  309728  1834.4    0.00  1077.6 16893.3    0.00 16893.3 16825.5   67.84
   15 204   128       0   31992  311548       0  311548  309721  1827.0    0.00  1077.6 16892.7    0.00 16892.7 16825.0   67.66
   15 205   129       0   31992  311531       0  311531  309714  1817.1    0.00  1077.6 16892.0    0.00 16892.0 16824.6   67.44
   15 206   130       0   31993  311516       0  311516  309708  1808.7    0.00  1077.6 16891.4    0.00 16891.4 16824.1   67.26
   15 207   131       0   31992  311502       0  311502  309701  1801.4    0.00  1077.6 16890.8    0.00 16890.8 16823.7   67.09
   15 208   132       0   31993  311489       0  311489  309695  1793.9    0.00  1077.6 16890.3    0.00 16890.3 16823.3   66.93
   15 209   133       0   31993  311472       0  311472  309691  1780.6    0.00  1077.6 16889.7    0.00 16889.7 16823.0   66.67
   15 210   134       0   31993  311455       0  311455  309687  1767.8    0.00  1077.6 16889.1    0.00 16889.1 16822.7   66.41
   15 211   135       0   31993  311440       0  311440  309683  1756.5    0.00  1077.6 16888.6    0.00 16888.6 16822.4   66.18
   15 212   136       0   31993  311427       0  311427  309680  1747.6    0.00  1077.6 16888.2    0.00 16888.2 16822.2   66.00
   15 213   137       0   31993  311416       0  311416  309676  1740.3    0.00  1077.6 16887.7    0.00 16887.7 16821.9   65.84
   15 214   138       0   31993  311406       0  311406  309671  1734.5    0.00  1077.6 16887.3    0.00 16887.3 16821.6   65.71
   15 215   139       0   31993  311397       0  311397  309667  1729.4    0.00  1077.6 16886.9    0.00 16886.9 16821.3   65.60
   15 216   140       0   31993  311387       0  311387  309662  1724.9    0.00  1077.6 16886.5    0.00 16886.5 16821.0   65.50
   15 217   141       0   31993  311378       0  311378  309657  1720.8    0.00  1077.6 16886.1    0.00 16886.1 16820.7   65.40
   15 218   142       0   31993  311369       0  311369  309651  1717.2    0.00  1077.6 16885.6    0.00 16885.6 16820.3   65.32
   15 219   143       0   31993  311359       0  311359  309645  1714.2    0.00  1077.6 16885.2    0.00 16885.2 16819.9   65.24
   15 220   144       0   31992  311350       0  311350  309639  1711.6    0.00  1077.6 16884.7    0.00 16884.7 16819.5   65.18
   15 221   145       0   31992  311337       0  311337  309632  1705.1    0.00  1077.6 16884.1    0.00 16884.1 16819.1   65.03
   15 222   146       0   31992  311325       0  311325  309626  1699.4    0.00  1077.6 16883.5    0.00 16883.5 16818.6   64.90
   15 223   147       0   31992  311313       0  311313  309618  1694.7    0.00  1077.5 16883.0    0.00 16883.0 16818.2   64.79
   15 224   148       0   31991  311302       0  311302  309611  1690.7    0.00  1077.5 16882.4    0.00 16882.4 16817.7   64.69
   15 225   149       0   31991  311292       0  311292  309604  1687.6    0.00  1077.5 16881.9    0.00 16881.9 16817.2   64.62
   15 226   150       0   31991  311282       0  311282  309597  1685.1    0.00  1077.5 16881.3    0.00 16881.3 16816.8   64.55
   15 227   151       0   31991  311263       0  311263  309591  1672.4    0.00  1077.5 16880.6    0.00 16880.6 16816.4   64.26
   15 228   152       0   31991  311246       0  311246  309585  1660.3    0.00  1077.5 16880.0    0.00 16880.0 16816.0   63.98
   15 229   153       0   31991  311223       0  311223  309581  1642.1    0.00  1077.5 16879.2    0.00 16879.2 16815.6   63.54
   15 230   154       0   31992  311201       0  311201  309578  1623.8    0.00  1077.6 16878.4    0.00 16878.4 16815.3   63.07
   15 231   155       0   31993  311179       0  311179  309575  1604.5    0.00  1077.6 16877.7    0.00 16877.7 16815.1   62.57
   15 232   156       0   31993  311160       0  311160  309572  1588.5    0.00  1077.6 16877.0    0.00 16877.0 16814.9   62.14
   15 233   157       0   31994  311144       0  311144  309569  1575.0    0.00  1077.6 16876.4    0.00 16876.4 16814.6   61.78
   15 234   158       0   31994  311129       0  311129  309566  1563.1    0.00  1077.7 16875.8    0.00 16875.8 16814.4   61.45
   15 235   159       0   31995  311114       0  311114  309563  1551.7    0.00  1077.7 16875.3    0.00 16875.3 16814.2   61.13
   15 236   160       0   31995  311098       0  311098  309559  1538.1    0.00  1077.7 16874.7    0.00 16874.7 16813.9   60.76
   15 237   161       0   31997  311071       0  311071  309557  1514.3    0.00  1077.8 16873.8    0.00 16873.8 16813.7   60.07

*DSSAT Cropping System Model Ver. 4.8.5.000 -release  MAR 01, 2026 09:34:20

*RUN   4        : 4                         WHAPS048 TUDU1501    4
 MODEL          : WHAPS048 - Wheat
 EXPERIMENT     : TUDU1501 WH
 DATA PATH      :
 TREATMENT  4   : 4                         WHAPS048
  
@YEAR DOY   DAS    OMAC    SCDD    SOCD    SC0D    SCTD   SOMCT    LCTD    ONAC    SNDD    SOND    SN0D    SNTD   SOMNT    LNTD
   15 076     0       0   31829  314106       0  314106  310026  4080.0    0.00  1072.8 16942.7    0.00 16942.7 16850.9   91.80
   15 077     1       0   31407  314076       0  314076  310028  4048.1    0.00  1056.6 16942.8    0.00 16942.8 16850.9   91.96
   15 078     2       0   31409  314050       0  314050  310030  4020.3    0.00  1056.7 16942.9    0.00 16942.9 16850.8   92.09
   15 079     3       0   31411  314030       0  314030  310031  3998.8    0.00  1056.7 16942.9    0.00 16942.9 16850.7   92.18
   15 080     4       0   31432  314016       0  314016  310032  3984.1    0.00  1057.5 16942.9    0.00 16942.9 16850.7   92.23
   15 081     5       0   31438  314007       0  314007  310033  3974.2    0.00  1057.7 16942.9    0.00 16942.9 16850.7   92.27
   15 082     6       0   31439  314004       0  314004  310033  3971.6    0.00  1057.7 16942.9    0.00 16942.9 16850.6   92.28
   15 083     7       0   31439  314004       0  314004  310033  3971.5    0.00  1057.7 16942.9    0.00 16942.9 16850.6   92.28
   15 084     8       0   31439  314004       0  314004  310032  3971.4    0.00  1057.7 16942.9    0.00 16942.9 16850.6   92.28
   15 085     9       0   31443  314002       0  314002  310032  3969.8    0.00  1057.9 16942.9    0.00 16942.9 16850.6   92.29
   15 086    10       0   31451  313999       0  313999  310032  3966.8    0.00  1058.2 16942.9    0.00 16942.9 16850.6   92.30
   15 087    11       0   31453  313994       0  313994  310033  3961.6    0.00  1058.2 16942.9    0.00 16942.9 16850.6   92.31
   15 088    12       0   31459  313986       0  313986  310033  3953.1    0.00  1058.5 16942.9    0.00 16942.9 16850.5   92.34
   15 089    13       0   31507  313975       0  313975  310033  3941.7    0.00  1060.3 16942.9    0.00 16942.9 16850.5   92.38
   15 090    14       0   31528  313964       0  313964  310034  3930.0    0.00  1061.1 16942.9    0.00 16942.9 16850.4   92.42
   15 091    15       0   31548  313952       0  313952  310035  3916.6    0.00  1061.9 16942.9    0.00 16942.9 16850.4   92.45
   15 092    16       0   31572  313943       0  313943  310036  3907.1    0.00  1062.8 16942.9    0.00 16942.9 16850.4   92.48
   15 093    17       0   31573  313938       0  313938  310036  3901.6    0.00  1062.8 16942.9    0.00 16942.9 16850.4   92.50
   15 094    18       0   31593  313937       0  313937  310036  3901.6    0.00  1063.5 16942.9    0.00 16942.9 16850.4   92.50
   15 095    19       0   31593  313937       0  313937  310036  3901.5    0.00  1063.5 16942.9    0.00 16942.9 16850.4   92.50
   15 096    20       0   31593  313937       0  313937  310036  3901.5    0.00  1063.6 16942.9    0.00 16942.9 16850.4   92.50
   15 097    21       0   31593  313937       0  313937  310036  3901.5    0.00  1063.6 16942.9    0.00 16942.9 16850.4   92.50
   15 098    22       0   31593  313937       0  313937  310036  3901.5    0.00  1063.6 16942.9    0.00 16942.9 16850.4   92.50
   15 099    23       0   31593  313937       0  313937  310036  3901.5    0.00  1063.6 16942.9    0.00 16942.9 16850.4   92.50
   15 100    24       0   31593  313937       0  313937  310036  3901.5    0.00  1063.6 16942.9    0.00 16942.9 16850.4   92.50
   15 101    25       0   31594  313929       0  313929  310037  3892.6    0.00  1063.6 16942.9    0.00 16942.9 16850.3   92.52
   15 102    26       0   31596  313911       0  313911  310038  3873.3    0.00  1063.6 16942.9    0.00 16942.9 16850.3   92.57
   15 103    27       0   31599  313885       0  313885  310040  3845.4    0.00  1063.7 16942.9    0.00 16942.9 16850.2   92.63
   15 104    28       0   31601  313856       0  313856  310042  3814.1    0.00  1063.7 16942.8    0.00 16942.8 16850.2   92.68
   15 105    29       0   31604  313826       0  313826  310043  3783.1    0.00  1063.8 16942.8    0.00 16942.8 16850.1   92.72
   15 106    30       0   31608  313796       0  313796  310045  3751.8    0.00  1063.9 16942.7    0.00 16942.7 16850.0   92.75
   15 107    31       0   31697  313765       0  313765  310045  3719.7    0.00  1067.3 16942.6    0.00 16942.6 16849.9   92.76
   15 108    32       0   31702  313718       0  313718  310050  3667.9    0.00  1067.4 16942.6    0.00 16942.6 16849.8   92.76
   15 109    33       0   31706  313676       0  313676  310055  3620.7    0.00  1067.5 16942.6    0.00 16942.6 16849.8   92.74
   15 110    34       0   31710  313640       0  313640  310059  3580.6    0.00  1067.6 16942.5    0.00 16942.5 16849.8   92.69
   15 111    35       0   31712  313614       0  313614  310062  3551.7    0.00  1067.6 16942.5    0.00 16942.5 16849.8   92.64
   15 112    36       0   31714  313595       0  313595  310064  3531.5    0.00  1067.7 16942.4    0.00 16942.4 16849.8   92.59
   15 113    37       0   31716  313578       0  313578  310065  3513.0    0.00  1067.7 16942.3    0.00 16942.3 16849.8   92.55
   15 114    38       0   31717  313562       0  313562  310066  3495.9    0.00  1067.8 16942.2    0.00 16942.2 16849.7   92.50
   15 115    39       0   31724  313545       0  313545  310067  3477.9    0.00  1068.0 16942.1    0.00 16942.1 16849.7   92.44
   15 116    40       0   31730  313525       0  313525  310067  3457.5    0.00  1068.2 16942.0    0.00 16942.0 16849.6   92.38
   15 117    41       0   31747  313502       0  313502  310068  3433.6    0.00  1068.8 16941.9    0.00 16941.9 16849.6   92.29
   15 118    42       0   31765  313471       0  313471  310071  3400.6    0.00  1069.5 16941.7    0.00 16941.7 16849.5   92.17
   15 119    43       0   31768  313438       0  313438  310073  3364.9    0.00  1069.5 16941.5    0.00 16941.5 16849.5   92.02
   15 120    44       0   31774  313405       0  313405  310076  3329.2    0.00  1069.7 16941.3    0.00 16941.3 16849.4   91.85
   15 121    45       0   31829  313373       0  313373  310078  3294.6    0.00  1071.8 16941.1    0.00 16941.1 16849.4   91.68
   15 122    46       0   31832  313353       0  313353  310079  3274.0    0.00  1071.9 16940.9    0.00 16940.9 16849.3   91.56
   15 123    47       0   31847  313336       0  313336  310080  3255.5    0.00  1072.4 16940.8    0.00 16940.8 16849.3   91.45
   15 124    48       0   31848  313316       0  313316  310081  3235.0    0.00  1072.5 16940.6    0.00 16940.6 16849.2   91.32
   15 125    49       0   31855  313285       0  313285  310082  3202.9    0.00  1072.7 16940.3    0.00 16940.3 16849.2   91.11
   15 126    50       0   31911  313252       0  313252  310082  3169.3    0.00  1074.8 16939.9    0.00 16939.9 16849.0   90.87
   15 127    51       0   31914  313222       0  313222  310082  3140.7    0.00  1074.9 16939.5    0.00 16939.5 16848.9   90.65
   15 128    52       0   31916  313190       0  313190  310081  3109.1    0.00  1075.0 16939.1    0.00 16939.1 16848.7   90.39
   15 129    53       0   31919  313161       0  313161  310079  3082.6    0.00  1075.0 16938.6    0.00 16938.6 16848.5   90.15
   15 130    54       0   31920  313138       0  313138  310076  3062.3    0.00  1075.1 16938.2    0.00 16938.2 16848.2   89.96
   15 131    55       0   31921  313120       0  313120  310073  3046.7    0.00  1075.1 16937.8    0.00 16937.8 16848.0   89.81
   15 132    56       0   31922  313103       0  313103  310069  3034.1    0.00  1075.1 16937.4    0.00 16937.4 16847.8   89.68
   15 133    57       0   31922  313087       0  313087  310064  3022.5    0.00  1075.1 16937.0    0.00 16937.0 16847.5   89.55
   15 134    58       0   31922  313070       0  313070  310059  3010.4    0.00  1075.1 16936.6    0.00 16936.6 16847.2   89.42
   15 135    59       0   31922  313053       0  313053  310054  2999.1    0.00  1075.1 16936.2    0.00 16936.2 16846.9   89.30
   15 136    60       0   31922  313037       0  313037  310049  2988.5    0.00  1075.1 16935.7    0.00 16935.7 16846.6   89.18
   15 137    61       0   31922  313022       0  313022  310044  2978.6    0.00  1075.1 16935.3    0.00 16935.3 16846.3   89.06
   15 138    62       0   31922  313008       0  313008  310039  2969.2    0.00  1075.1 16934.9    0.00 16934.9 16846.0   88.95
   15 139    63       0   31922  312995       0  312995  310034  2960.4    0.00  1075.1 16934.6    0.00 16934.6 16845.7   88.85
   15 140    64       0   31922  312982       0  312982  310030  2951.8    0.00  1075.1 16934.2    0.00 16934.2 16845.5   88.74
   15 141    65       0   31922  312968       0  312968  310026  2942.1    0.00  1075.1 16933.8    0.00 16933.8 16845.2   88.63
   15 142    66       0   31923  312954       0  312954  310023  2930.5    0.00  1075.1 16933.5    0.00 16933.5 16845.0   88.49
   15 143    67       0   31924  312940       0  312940  310021  2918.7    0.00  1075.1 16933.2    0.00 16933.2 16844.8   88.35
   15 144    68       0   31924  312927       0  312927  310019  2908.9    0.00  1075.2 16932.9    0.00 16932.9 16844.7   88.23
   15 145    69       0   31925  312916       0  312916  310016  2900.0    0.00  1075.2 16932.7    0.00 16932.7 16844.5   88.12
   15 146    70       0   31925  312905       0  312905  310013  2891.8    0.00  1075.2 16932.4    0.00 16932.4 16844.3   88.01
   15 147    71       0   31925  312894       0  312894  310010  2884.0    0.00  1075.2 16932.0    0.00 16932.0 16844.1   87.91
   15 148    72       0   31925  312883       0  312883  310006  2876.8    0.00  1075.2 16931.7    0.00 16931.7 16843.9   87.81
   15 149    73       0   31925  312872       0  312872  310002  2870.2    0.00  1075.2 16931.4    0.00 16931.4 16843.7   87.72
   15 150    74       0   31925  312861       0  312861  309998  2863.7    0.00  1075.2 16931.1    0.00 16931.1 16843.4   87.63
   15 151    75       0   31925  312850       0  312850  309993  2857.0    0.00  1075.2 16930.7    0.00 16930.7 16843.2   87.53
   15 152    76       0   31925  312838       0  312838  309989  2849.8    0.00  1075.2 16930.4    0.00 16930.4 16842.9   87.43
   15 153    77       0   31926  312810       0  312810  309986  2823.5    0.00  1075.2 16929.9    0.00 16929.9 16842.7   87.17
   15 154    78       0   31927  312777       0  312777  309984  2793.5    0.00  1075.2 16929.3    0.00 16929.3 16842.4   86.85
   15 155    79       0   31928  312742       0  312742  309981  2761.1    0.00  1075.2 16928.6    0.00 16928.6 16842.2   86.48
   15 156    80       0   31929  312705       0  312705  309977  2727.2    0.00  1075.3 16927.9    0.00 16927.9 16841.9   86.06
   15 157    81       0   31931  312666       0  312666  309974  2692.8    0.00  1075.3 16927.1    0.00 16927.1 16841.5   85.60
   15 158    82       0   31934  312618       0  312618  309972  2646.3    0.00  1075.4 16926.2    0.00 16926.2 16841.2   84.99
   15 159    83       0   31937  312572       0  312572  309970  2601.8    0.00  1075.5 16925.3    0.00 16925.3 16841.0   84.36
   15 160    84       0   31943  312515       0  312515  309971  2543.9    0.00  1075.7 16924.3    0.00 16924.3 16840.8   83.51
   15 161    85       0   31947  312464       0  312464  309972  2492.4    0.00  1075.8 16923.4    0.00 16923.4 16840.6   82.71
   15 162    86       0   31951  312421       0  312421  309972  2449.3    0.00  1076.0 16922.5    0.00 16922.5 16840.5   82.01
   15 163    87       0   31954  312383       0  312383  309971  2412.5    0.00  1076.1 16921.7    0.00 16921.7 16840.3   81.39
   15 164    88       0   31957  312349       0  312349  309969  2379.7    0.00  1076.2 16920.9    0.00 16920.9 16840.1   80.81
   15 165    89       0   31961  312313       0  312313  309967  2345.7    0.00  1076.3 16920.1    0.00 16920.1 16839.9   80.19
   15 166    90       0   31964  312273       0  312273  309965  2307.7    0.00  1076.4 16919.1    0.00 16919.1 16839.7   79.48
   15 167    91       0   31967  312239       0  312239  309962  2277.2    0.00  1076.5 16918.3    0.00 16918.3 16839.4   78.89
   15 168    92       0   31970  312202       0  312202  309959  2242.7    0.00  1076.6 16917.3    0.00 16917.3 16839.1   78.21
   15 169    93       0   31973  312167       0  312167  309957  2210.5    0.00  1076.7 16916.5    0.00 16916.5 16838.9   77.56
   15 170    94       0   31975  312139       0  312139  309954  2184.3    0.00  1076.8 16915.7    0.00 16915.7 16838.7   77.02
   15 171    95       0   31977  312110       0  312110  309953  2157.2    0.00  1076.9 16915.0    0.00 16915.0 16838.5   76.46
   15 172    96       0   31979  312084       0  312084  309951  2132.5    0.00  1076.9 16914.3    0.00 16914.3 16838.4   75.94
   15 173    97       0   31981  312059       0  312059  309950  2109.2    0.00  1077.0 16913.6    0.00 16913.6 16838.2   75.44
   15 174    98       0   31983  312033       0  312033  309948  2085.6    0.00  1077.1 16913.0    0.00 16913.0 16838.0   74.92
   15 175    99       0   31985  312008       0  312008  309946  2062.7    0.00  1077.2 16912.3    0.00 16912.3 16837.9   74.41
   15 176   100       0   31987  311983       0  311983  309944  2039.7    0.00  1077.2 16911.6    0.00 16911.6 16837.7   73.89
   15 177   101       0   31989  311958       0  311958  309941  2016.9    0.00  1077.3 16910.9    0.00 16910.9 16837.5   73.37
   15 178   102       0   31990  311932       0  311932  309938  1994.0    0.00  1077.4 16910.1    0.00 16910.1 16837.3   72.84
   15 179   103       0   31992  311906       0  311906  309935  1971.1    0.00  1077.4 16909.4    0.00 16909.4 16837.1   72.30
   15 180   104       0   31994  311878       0  311878  309932  1946.4    0.00  1077.5 16908.5    0.00 16908.5 16836.8   71.72
   15 181   105       0   31995  311850       0  311850  309928  1921.8    0.00  1077.6 16907.7    0.00 16907.7 16836.5   71.14
   15 182   106       0   31997  311821       0  311821  309923  1898.0    0.00  1077.6 16906.8    0.00 16906.8 16836.2   70.56
   15 183   107       0   31998  311795       0  311795  309918  1876.9    0.00  1077.7 16905.9    0.00 16905.9 16835.9   70.03
   15 184   108       0   31999  311770       0  311770  309912  1857.6    0.00  1077.7 16905.0    0.00 16905.0 16835.5   69.55
   15 185   109       0   32000  311746       0  311746  309906  1840.2    0.00  1077.8 16904.2    0.00 16904.2 16835.1   69.10
   15 186   110       0   32001  311723       0  311723  309899  1824.3    0.00  1077.8 16903.4    0.00 16903.4 16834.7   68.69
   15 187   111       0   32002  311702       0  311702  309892  1810.2    0.00  1077.8 16902.5    0.00 16902.5 16834.2   68.32
   15 188   112       0   32003  311682       0  311682  309885  1796.4    0.00  1077.9 16901.7    0.00 16901.7 16833.8   67.96
   15 189   113       0   32003  311653       0  311653  309880  1773.5    0.00  1077.9 16900.8    0.00 16900.8 16833.4   67.40
   15 190   114       0   32005  311621       0  311621  309876  1744.6    0.00  1078.0 16899.8    0.00 16899.8 16833.1   66.69
   15 191   115       0   32006  311591       0  311591  309873  1718.6    0.00  1078.0 16898.8    0.00 16898.8 16832.8   66.03
   15 192   116       0   32007  311568       0  311568  309870  1698.2    0.00  1078.0 16898.1    0.00 16898.1 16832.6   65.50
   15 193   117       0   32007  311549       0  311549  309866  1683.1    0.00  1078.1 16897.4    0.00 16897.4 16832.3   65.10
   15 194   118       0   32008  311536       0  311536  309863  1673.2    0.00  1078.1 16896.9    0.00 16896.9 16832.0   64.84
   15 195   119       0   32008  311523       0  311523  309859  1664.0    0.00  1078.1 16896.4    0.00 16896.4 16831.8   64.59
[...]
   15 083     7       0   31439  314004       0  314004  310033  3971.5    0.00  1057.7 16942.9    0.00 16942.9 16850.6   92.28
   15 084     8       0   31439  314004       0  314004  310032  3971.4    0.00  1057.7 16942.9    0.00 16942.9 16850.6   92.28
   15 085     9       0   31443  314002       0  314002  310032  3969.8    0.00  1057.9 16942.9    0.00 16942.9 16850.6   92.29
   15 086    10       0   31451  313999       0  313999  310032  3966.8    0.00  1058.2 16942.9    0.00 16942.9 16850.6   92.30
   15 087    11       0   31453  313994       0  313994  310033  3961.6    0.00  1058.2 16942.9    0.00 16942.9 16850.6   92.31
   15 088    12       0   31459  313986       0  313986  310033  3953.1    0.00  1058.5 16942.9    0.00 16942.9 16850.5   92.34
   15 089    13       0   31507  313975       0  313975  310033  3941.7    0.00  1060.3 16942.9    0.00 16942.9 16850.5   92.38
   15 090    14       0   31528  313964       0  313964  310034  3930.0    0.00  1061.1 16942.9    0.00 16942.9 16850.4   92.42
   15 091    15       0   31548  313952       0  313952  310035  3916.6    0.00  1061.9 16942.9    0.00 16942.9 16850.4   92.45
   15 092    16       0   31572  313943       0  313943  310036  3907.1    0.00  1062.8 16942.9    0.00 16942.9 16850.4   92.48
   15 093    17       0   31573  313938       0  313938  310036  3901.6    0.00  1062.8 16942.9    0.00 16942.9 16850.4   92.50
   15 094    18       0   31593  313937       0  313937  310036  3901.6    0.00  1063.5 16942.9    0.00 16942.9 16850.4   92.50
   15 095    19       0   31593  313937       0  313937  310036  3901.5    0.00  1063.5 16942.9    0.00 16942.9 16850.4   92.50
   15 096    20       0   31593  313937       0  313937  310036  3901.5    0.00  1063.6 16942.9    0.00 16942.9 16850.4   92.50
   15 097    21       0   31593  313937       0  313937  310036  3901.5    0.00  1063.6 16942.9    0.00 16942.9 16850.4   92.50
   15 098    22       0   31593  313937       0  313937  310036  3901.5    0.00  1063.6 16942.9    0.00 16942.9 16850.4   92.50
   15 099    23       0   31593  313937       0  313937  310036  3901.5    0.00  1063.6 16942.9    0.00 16942.9 16850.4   92.50
   15 100    24       0   31593  313937       0  313937  310036  3901.5    0.00  1063.6 16942.9    0.00 16942.9 16850.4   92.50
   15 101    25       0   31594  313930       0  313930  310036  3893.5    0.00  1063.6 16942.8    0.00 16942.8 16850.3   92.52
   15 102    26       0   31596  313913       0  313913  310037  3876.0    0.00  1063.6 16942.8    0.00 16942.8 16850.3   92.56
   15 103    27       0   31598  313889       0  313889  310039  3850.4    0.00  1063.7 16942.8    0.00 16942.8 16850.2   92.61
   15 104    28       0   31601  313862       0  313862  310040  3821.6    0.00  1063.7 16942.8    0.00 16942.8 16850.1   92.67
   15 105    29       0   31604  313834       0  313834  310041  3792.6    0.00  1063.8 16942.7    0.00 16942.7 16850.0   92.70
   15 106    30       0   31607  313805       0  313805  310042  3762.9    0.00  1063.9 16942.7    0.00 16942.7 16849.9   92.73
   15 107    31       0   31696  313775       0  313775  310043  3732.0    0.00  1067.2 16942.5    0.00 16942.5 16849.8   92.74
   15 108    32       0   31699  313739       0  313739  310045  3693.3    0.00  1067.3 16942.4    0.00 16942.4 16849.7   92.75
   15 109    33       0   31703  313705       0  313705  310048  3656.8    0.00  1067.4 16942.4    0.00 16942.4 16849.6   92.74
   15 110    34       0   31705  313677       0  313677  310050  3627.5    0.00  1067.4 16942.3    0.00 16942.3 16849.6   92.71
   15 111    35       0   31707  313656       0  313656  310051  3605.3    0.00  1067.5 16942.2    0.00 16942.2 16849.5   92.68
   15 112    36       0   31709  313641       0  313641  310052  3588.5    0.00  1067.5 16942.2    0.00 16942.2 16849.5   92.66
   15 113    37       0   31710  313625       0  313625  310053  3572.5    0.00  1067.6 16942.1    0.00 16942.1 16849.5   92.63
   15 114    38       0   31712  313611       0  313611  310054  3557.1    0.00  1067.6 16942.0    0.00 16942.0 16849.4   92.59
   15 115    39       0   31718  313595       0  313595  310054  3540.8    0.00  1067.8 16941.9    0.00 16941.9 16849.4   92.55
   15 116    40       0   31724  313577       0  313577  310054  3523.0    0.00  1068.0 16941.8    0.00 16941.8 16849.3   92.50
   15 117    41       0   31740  313558       0  313558  310054  3503.2    0.00  1068.6 16941.6    0.00 16941.6 16849.2   92.44
   15 118    42       0   31758  313535       0  313535  310055  3480.3    0.00  1069.3 16941.5    0.00 16941.5 16849.1   92.36
   15 119    43       0   31759  313515       0  313515  310054  3461.7    0.00  1069.3 16941.2    0.00 16941.2 16849.0   92.28
   15 120    44       0   31763  313498       0  313498  310053  3445.0    0.00  1069.4 16941.0    0.00 16941.0 16848.8   92.21
   15 121    45       0   31816  313480       0  313480  310052  3428.1    0.00  1071.4 16940.8    0.00 16940.8 16848.7   92.13
   15 122    46       0   31819  313467       0  313467  310051  3416.5    0.00  1071.5 16940.7    0.00 16940.7 16848.6   92.07
   15 123    47       0   31833  313456       0  313456  310050  3405.7    0.00  1072.1 16940.5    0.00 16940.5 16848.5   92.02
   15 124    48       0   31833  313444       0  313444  310048  3395.8    0.00  1072.1 16940.3    0.00 16940.3 16848.4   91.97
   15 125    49       0   31837  313430       0  313430  310046  3384.9    0.00  1072.2 16940.1    0.00 16940.1 16848.2   91.90
   15 126    50       0   31891  313415       0  313415  310042  3373.1    0.00  1074.3 16939.8    0.00 16939.8 16847.9   91.83
   15 127    51       0   31891  313399       0  313399  310037  3362.2    0.00  1074.3 16939.4    0.00 16939.4 16847.6   91.76
   15 128    52       0   31892  313382       0  313382  310033  3349.6    0.00  1074.3 16939.0    0.00 16939.0 16847.4   91.68
   15 129    53       0   31892  313364       0  313364  310028  3336.5    0.00  1074.3 16938.6    0.00 16938.6 16847.1   91.59
   15 130    54       0   31892  313347       0  313347  310023  3323.8    0.00  1074.3 16938.3    0.00 16938.3 16846.8   91.49
   15 131    55       0   31892  313331       0  313331  310020  3311.7    0.00  1074.3 16937.9    0.00 16937.9 16846.5   91.40
   15 132    56       0   31893  313316       0  313316  310016  3300.0    0.00  1074.3 16937.6    0.00 16937.6 16846.3   91.31
   15 133    57       0   31893  313299       0  313299  310011  3288.1    0.00  1074.3 16937.2    0.00 16937.2 16846.0   91.21
   15 134    58       0   31893  313282       0  313282  310006  3275.8    0.00  1074.3 16936.8    0.00 16936.8 16845.7   91.11
   15 135    59       0   31893  313264       0  313264  310001  3263.4    0.00  1074.3 16936.4    0.00 16936.4 16845.4   91.00
   15 136    60       0   31894  313248       0  313248  309996  3251.5    0.00  1074.3 16936.0    0.00 16936.0 16845.1   90.90
   15 137    61       0   31894  313231       0  313231  309991  3240.1    0.00  1074.3 16935.6    0.00 16935.6 16844.8   90.80
   15 138    62       0   31894  313216       0  313216  309987  3229.1    0.00  1074.3 16935.2    0.00 16935.2 16844.5   90.69
   15 139    63       0   31894  313201       0  313201  309983  3218.6    0.00  1074.3 16934.8    0.00 16934.8 16844.2   90.59
   15 140    64       0   31895  313187       0  313187  309978  3208.4    0.00  1074.3 16934.5    0.00 16934.5 16844.0   90.50
   15 141    65       0   31895  313173       0  313173  309975  3197.8    0.00  1074.3 16934.1    0.00 16934.1 16843.7   90.40
   15 142    66       0   31896  313158       0  313158  309972  3185.9    0.00  1074.3 16933.8    0.00 16933.8 16843.5   90.30
   15 143    67       0   31896  313143       0  313143  309970  3173.8    0.00  1074.3 16933.6    0.00 16933.6 16843.4   90.19
   15 144    68       0   31897  313130       0  313130  309968  3162.6    0.00  1074.4 16933.3    0.00 16933.3 16843.2   90.08
   15 145    69       0   31898  313118       0  313118  309966  3151.8    0.00  1074.4 16933.1    0.00 16933.1 16843.1   89.98
   15 146    70       0   31899  313104       0  313104  309963  3141.0    0.00  1074.4 16932.8    0.00 16932.8 16842.9   89.88
   15 147    71       0   31899  313090       0  313090  309960  3130.2    0.00  1074.4 16932.5    0.00 16932.5 16842.7   89.76
   15 148    72       0   31900  313077       0  313077  309957  3119.7    0.00  1074.4 16932.2    0.00 16932.2 16842.5   89.65
   15 149    73       0   31900  313063       0  313063  309954  3109.5    0.00  1074.4 16931.8    0.00 16931.8 16842.3   89.54
   15 150    74       0   31901  313049       0  313049  309950  3098.9    0.00  1074.5 16931.5    0.00 16931.5 16842.1   89.43
   15 151    75       0   31901  313035       0  313035  309947  3087.8    0.00  1074.5 16931.2    0.00 16931.2 16841.9   89.30
   15 152    76       0   31902  313019       0  313019  309943  3076.0    0.00  1074.5 16930.8    0.00 16930.8 16841.6   89.17
   15 153    77       0   31902  313001       0  313001  309938  3062.8    0.00  1074.5 16930.3    0.00 16930.3 16841.3   89.02
   15 154    78       0   31903  312980       0  312980  309933  3047.7    0.00  1074.5 16929.8    0.00 16929.8 16841.0   88.85
   15 155    79       0   31904  312957       0  312957  309927  3030.5    0.00  1074.5 16929.2    0.00 16929.2 16840.6   88.65
   15 156    80       0   31905  312932       0  312932  309921  3010.9    0.00  1074.5 16928.6    0.00 16928.6 16840.2   88.42
   15 157    81       0   31906  312903       0  312903  309915  2988.1    0.00  1074.6 16928.0    0.00 16928.0 16839.8   88.16
   15 158    82       0   31908  312871       0  312871  309909  2961.6    0.00  1074.6 16927.2    0.00 16927.2 16839.4   87.85
   15 159    83       0   31910  312835       0  312835  309904  2930.9    0.00  1074.7 16926.5    0.00 16926.5 16839.0   87.48
   15 160    84       0   31913  312795       0  312795  309900  2895.1    0.00  1074.8 16925.7    0.00 16925.7 16838.7   87.03
   15 161    85       0   31917  312753       0  312753  309898  2854.9    0.00  1074.9 16924.9    0.00 16924.9 16838.4   86.52
   15 162    86       0   31921  312714       0  312714  309897  2817.5    0.00  1075.0 16924.2    0.00 16924.2 16838.2   86.01
   15 163    87       0   31925  312678       0  312678  309895  2783.0    0.00  1075.1 16923.5    0.00 16923.5 16838.0   85.52
   15 164    88       0   31928  312644       0  312644  309893  2750.8    0.00  1075.3 16922.8    0.00 16922.8 16837.8   85.03
   15 165    89       0   31931  312608       0  312608  309891  2716.9    0.00  1075.4 16922.0    0.00 16922.0 16837.5   84.50
   15 166    90       0   31935  312567       0  312567  309888  2678.8    0.00  1075.5 16921.2    0.00 16921.2 16837.3   83.89
   15 167    91       0   31938  312533       0  312533  309884  2648.6    0.00  1075.6 16920.3    0.00 16920.3 16836.9   83.39
   15 168    92       0   31941  312497       0  312497  309881  2615.2    0.00  1075.7 16919.5    0.00 16919.5 16836.7   82.82
   15 169    93       0   31944  312462       0  312462  309879  2583.6    0.00  1075.8 16918.7    0.00 16918.7 16836.4   82.27
   15 170    94       0   31946  312435       0  312435  309876  2558.9    0.00  1075.9 16918.0    0.00 16918.0 16836.2   81.82
   15 171    95       0   31948  312409       0  312409  309874  2535.2    0.00  1075.9 16917.4    0.00 16917.4 16836.0   81.38
   15 172    96       0   31951  312384       0  312384  309872  2512.9    0.00  1076.0 16916.8    0.00 16916.8 16835.8   80.97
   15 173    97       0   31953  312361       0  312361  309869  2491.8    0.00  1076.1 16916.2    0.00 16916.2 16835.6   80.56
   15 174    98       0   31955  312337       0  312337  309867  2470.4    0.00  1076.1 16915.6    0.00 16915.6 16835.4   80.14
   15 175    99       0   31956  312314       0  312314  309865  2449.6    0.00  1076.2 16915.0    0.00 16915.0 16835.3   79.72
   15 176   100       0   31958  312291       0  312291  309862  2428.9    0.00  1076.3 16914.3    0.00 16914.3 16835.1   79.29
   15 177   101       0   31960  312268       0  312268  309859  2408.4    0.00  1076.4 16913.7    0.00 16913.7 16834.8   78.86
   15 178   102       0   31962  312244       0  312244  309856  2387.7    0.00  1076.4 16913.0    0.00 16913.0 16834.6   78.43
   15 179   103       0   31964  312220       0  312220  309853  2367.2    0.00  1076.5 16912.3    0.00 16912.3 16834.4   77.99
   15 180   104       0   31966  312194       0  312194  309849  2345.4    0.00  1076.6 16911.6    0.00 16911.6 16834.1   77.53
   15 181   105       0   31967  312167       0  312167  309844  2322.6    0.00  1076.6 16910.8    0.00 16910.8 16833.8   77.04
   15 182   106       0   31969  312138       0  312138  309839  2298.5    0.00  1076.7 16910.0    0.00 16910.0 16833.5   76.53
   15 183   107       0   31971  312109       0  312109  309834  2274.4    0.00  1076.8 16909.1    0.00 16909.1 16833.1   76.03
   15 184   108       0   31973  312079       0  312079  309828  2251.0    0.00  1076.8 16908.2    0.00 16908.2 16832.7   75.53
   15 185   109       0   31974  312051       0  312051  309822  2229.2    0.00  1076.9 16907.4    0.00 16907.4 16832.3   75.06
   15 186   110       0   31975  312023       0  312023  309814  2208.9    0.00  1076.9 16906.4    0.00 16906.4 16831.8   74.61
   15 187   111       0   31977  311997       0  311997  309806  2190.6    0.00  1077.0 16905.5    0.00 16905.5 16831.3   74.18
   15 188   112       0   31978  311970       0  311970  309798  2171.7    0.00  1077.0 16904.6    0.00 16904.6 16830.8   73.78
   15 189   113       0   31979  311938       0  311938  309791  2147.1    0.00  1077.1 16903.7    0.00 16903.7 16830.4   73.34
   15 190   114       0   31980  311904       0  311904  309785  2119.3    0.00  1077.1 16902.8    0.00 16902.8 16829.9   72.84
   15 191   115       0   31982  311870       0  311870  309780  2090.0    0.00  1077.2 16901.9    0.00 16901.9 16829.6   72.34
   15 192   116       0   31983  311837       0  311837  309777  2060.0    0.00  1077.2 16901.1    0.00 16901.1 16829.3   71.88
   15 193   117       0   31984  311809       0  311809  309774  2035.9    0.00  1077.3 16900.4    0.00 16900.4 16829.0   71.48
   15 194   118       0   31985  311787       0  311787  309770  2017.7    0.00  1077.3 16899.8    0.00 16899.8 16828.7   71.16
   15 195   119       0   31986  311766       0  311766  309766  2000.4    0.00  1077.3 16899.2    0.00 16899.2 16828.4   70.85
   15 196   120       0   31987  311744       0  311744  309761  1983.3    0.00  1077.3 16898.6    0.00 16898.6 16828.1   70.53
   15 197   121       0   31987  311723       0  311723  309756  1967.2    0.00  1077.4 16897.9    0.00 16897.9 16827.7   70.22
   15 198   122       0   31988  311703       0  311703  309750  1952.9    0.00  1077.4 16897.2    0.00 16897.2 16827.3   69.92
   15 199   123       0   31988  311684       0  311684  309743  1940.6    0.00  1077.4 16896.5    0.00 16896.5 16826.9   69.66
   15 200   124       0   31989  311665       0  311665  309737  1928.7    0.00  1077.4 16895.8    0.00 16895.8 16826.4   69.41
   15 201   125       0   31989  311647       0  311647  309730  1916.9    0.00  1077.4 16895.2    0.00 16895.2 16826.0   69.17
   15 202   126       0   31989  311630       0  311630  309723  1906.6    0.00  1077.4 16894.5    0.00 16894.5 16825.5   68.95
   15 203   127       0   31989  311613       0  311613  309716  1897.7    0.00  1077.5 16893.8    0.00 16893.8 16825.1   68.75
   15 204   128       0   31989  311599       0  311599  309708  1890.3    0.00  1077.5 16893.2    0.00 16893.2 16824.6   68.58
   15 205   129       0   31989  311582       0  311582  309702  1880.3    0.00  1077.5 16892.6    0.00 16892.6 16824.2   68.38
   15 206   130       0   31989  311567       0  311567  309695  1871.8    0.00  1077.5 16891.9    0.00 16891.9 16823.7   68.21
   15 207   131       0   31989  311553       0  311553  309688  1864.4    0.00  1077.5 16891.4    0.00 16891.4 16823.3   68.06
   15 208   132       0   31989  311539       0  311539  309683  1856.7    0.00  1077.5 16890.8    0.00 16890.8 16822.9   67.91
   15 209   133       0   31990  311522       0  311522  309678  1843.2    0.00  1077.5 16890.3    0.00 16890.3 16822.6   67.67
   15 210   134       0   31990  311504       0  311504  309674  1830.0    0.00  1077.5 16889.8    0.00 16889.8 16822.3   67.44
   15 211   135       0   31990  311489       0  311489  309671  1818.2    0.00  1077.5 16889.3    0.00 16889.3 16822.0   67.24
   15 212   136       0   31990  311476       0  311476  309667  1809.0    0.00  1077.5 16888.8    0.00 16888.8 16821.8   67.07
   15 213   137       0   31990  311465       0  311465  309663  1801.3    0.00  1077.5 16888.4    0.00 16888.4 16821.5   66.92
   15 214   138       0   31990  311454       0  311454  309659  1795.2    0.00  1077.5 16888.0    0.00 16888.0 16821.2   66.80
   15 215   139       0   31990  311445       0  311445  309655  1789.8    0.00  1077.5 16887.6    0.00 16887.6 16820.9   66.70
   15 216   140       0   31990  311435       0  311435  309650  1785.0    0.00  1077.5 16887.2    0.00 16887.2 16820.6   66.60
   15 217   141       0   31990  311426       0  311426  309645  1780.7    0.00  1077.5 16886.8    0.00 16886.8 16820.3   66.51
   15 218   142       0   31990  311416       0  311416  309639  1776.9    0.00  1077.5 16886.3    0.00 16886.3 16819.9   66.43
   15 219   143       0   31990  311407       0  311407  309633  1773.6    0.00  1077.5 16885.9    0.00 16885.9 16819.5   66.35
   15 220   144       0   31989  311397       0  311397  309627  1770.8    0.00  1077.5 16885.4    0.00 16885.4 16819.1   66.29
   15 221   145       0   31989  311384       0  311384  309620  1763.8    0.00  1077.5 16884.8    0.00 16884.8 16818.7   66.15
   15 222   146       0   31989  311371       0  311371  309614  1757.7    0.00  1077.5 16884.2    0.00 16884.2 16818.2   66.03
   15 223   147       0   31989  311359       0  311359  309607  1752.5    0.00  1077.4 16883.7    0.00 16883.7 16817.8   65.92
   15 224   148       0   31988  311348       0  311348  309600  1748.2    0.00  1077.4 16883.1    0.00 16883.1 16817.3   65.83
   15 225   149       0   31988  311337       0  311337  309592  1744.8    0.00  1077.4 16882.6    0.00 16882.6 16816.8   65.75
   15 226   150       0   31988  311327       0  311327  309585  1742.2    0.00  1077.4 16882.1    0.00 16882.1 16816.4   65.69
   15 227   151       0   31988  311308       0  311308  309580  1728.2    0.00  1077.4 16881.4    0.00 16881.4 16816.0   65.41
   15 228   152       0   31988  311289       0  311289  309574  1714.7    0.00  1077.4 16880.7    0.00 16880.7 16815.6   65.13
   15 229   153       0   31988  311265       0  311265  309570  1694.6    0.00  1077.4 16879.9    0.00 16879.9 16815.2   64.69
   15 230   154       0   31989  311242       0  311242  309567  1674.8    0.00  1077.5 16879.2    0.00 16879.2 16815.0   64.22
   15 231   155       0   31990  311218       0  311218  309565  1653.8    0.00  1077.5 16878.4    0.00 16878.4 16814.7   63.70
   15 232   156       0   31991  311199       0  311199  309562  1636.5    0.00  1077.5 16877.8    0.00 16877.8 16814.5   63.27
   15 233   157       0   31991  311181       0  311181  309559  1621.9    0.00  1077.6 16877.2    0.00 16877.2 16814.3   62.90
   15 234   158       0   31992  311166       0  311166  309556  1609.1    0.00  1077.6 16876.6    0.00 16876.6 16814.0   62.56
   15 235   159       0   31992  311150       0  311150  309553  1596.9    0.00  1077.6 16876.0    0.00 16876.0 16813.8   62.24
   15 236   160       0   31993  311132       0  311132  309550  1582.2    0.00  1077.6 16875.4    0.00 16875.4 16813.6   61.86
   15 237   161       0   31995  311106       0  311106  309548  1557.4    0.00  1077.7 16874.5    0.00 16874.5 16813.3   61.17
