*Soil Inorganic Nitrogen daily output file

*DSSAT Cropping System Model Ver. 4.8.5.000 -release  MAR 01, 2026 09:34:20

*RUN   1        : 1                         WHAPS048 TUDU1501    1
 MODEL          : WHAPS048 - Wheat
 EXPERIMENT     : TUDU1501 WH
 DATA PATH      :
 TREATMENT  1   : 1                         WHAPS048
  
!                                                                                                                                      NO3 (ppm) at soil dep. (cm):                                                    NH4 (ppm) at soil dep. (cm):                                                    Total Inorganic N @dep(ppm):
!                                                                                                                                       0-5    5-15   15-20   20-30   30-40   40-50   50-60   60-70   70-90  90-210     0-5    5-15   15-20   20-30   30-40   40-50   50-60   60-70   70-90  90-210     0-5    5-15   15-20   20-30   30-40   40-50   50-60   60-70   70-90  90-210
@YEAR DOY   DAS  NAPC  NI#M    NIAD    NITD    NHTD   NURTD    NMNC    NITC    NDNC    NIMC    AMLC   NNMNC    NUCM    NLCC    TDNC    NI1D    NI2D    NI3D    NI4D    NI5D    NI6D    NI7D    NI8D    NI9D    NI10    NH1D    NH2D    NH3D    NH4D    NH5D    NH6D    NH7D    NH8D    NH9D    NH10    NT1D    NT2D    NT3D    NT4D    NT5D    NT6D    NT7D    NT8D    NT9D    NT10    
   15 076     0     0     0   129.8   116.8    13.0     0.0    0.00    0.00    0.00    0.00    0.00    0.00    0.00    0.00    0.00    3.87     3.9     3.9    3.87    3.87    3.87    3.87    3.87    3.87    3.87    0.43    0.43    0.43    0.43    0.43    0.43    0.43    0.43    0.43    0.43    4.30    4.30    4.30    4.30    4.30    4.30    4.30    4.30    4.30    4.30
   15 077     1     0     0   129.7   118.4    11.2     0.0    0.15    1.64    0.00    0.24    0.00   -0.09    0.00    0.00    0.00    3.92     3.9     3.9    3.92    3.92    3.92    3.92    3.92    3.92    3.92    0.25    0.26    0.39    0.38    0.38    0.38    0.38    0.38    0.38    0.38    4.17    4.18    4.31    4.31    4.31    4.31    4.31    4.31    4.30    4.30
   15 078     2     0     0   129.6   119.8     9.8     0.0    0.28    3.01    0.00    0.44    0.00   -0.16    0.00    0.00    0.00    4.01     3.9     4.0    3.96    3.96    3.97    3.97    3.97    3.97    3.97    0.12    0.13    0.35    0.35    0.35    0.34    0.34    0.34    0.34    0.34    4.13    4.07    4.31    4.31    4.31    4.31    4.31    4.31    4.31    4.31
   15 079     3     0     0   129.6   120.9     8.6     0.0    0.39    4.15    0.00    0.58    0.00   -0.19    0.00    0.00    0.00    4.09     3.9     4.0    4.00    4.00    4.00    4.00    4.01    4.01    4.01    0.03    0.05    0.32    0.31    0.31    0.31    0.31    0.31    0.30    0.30    4.12    3.97    4.31    4.31    4.31    4.31    4.31    4.31    4.31    4.31
   15 080     4     0     0   129.5   121.8     7.7     0.0    0.48    5.08    0.00    0.67    0.00   -0.20    0.00    0.00    0.00    4.08     3.9     4.0    4.02    4.03    4.03    4.03    4.04    4.04    4.04    0.00    0.00    0.29    0.29    0.28    0.28    0.28    0.28    0.27    0.27    4.08    3.93    4.30    4.31    4.32    4.31    4.32    4.32    4.31    4.31
   15 081     5     0     0   129.5   122.5     7.0     0.0    0.54    5.86    0.00    0.74    0.00   -0.20    0.00    0.00    0.00    4.09     3.9     4.0    4.05    4.05    4.06    4.06    4.06    4.07    4.07    0.00    0.00    0.27    0.26    0.26    0.26    0.26    0.25    0.25    0.25    4.09    3.89    4.30    4.31    4.32    4.31    4.32    4.32    4.31    4.32
   15 082     6     0     0   129.5   123.2     6.4     0.0    0.56    6.52    0.00    0.75    0.00   -0.19    0.00    0.00    0.00    4.13     3.9     4.0    4.06    4.07    4.08    4.08    4.09    4.09    4.09    0.00    0.00    0.25    0.24    0.24    0.24    0.23    0.23    0.23    0.22    4.13    3.87    4.29    4.31    4.31    4.31    4.32    4.32    4.32    4.32
   15 083     7     0     0   129.6   123.8     5.8     0.0    0.57    7.09    0.00    0.75    0.00   -0.18    0.00    0.00    0.00    4.20     3.9     4.1    4.08    4.09    4.10    4.10    4.10    4.11    4.11    0.00    0.00    0.23    0.22    0.22    0.22    0.22    0.21    0.21    0.20    4.20    3.85    4.29    4.30    4.31    4.31    4.32    4.32    4.31    4.32
   15 084     8     0     0   129.6   124.3     5.3     0.0    0.58    7.61    0.00    0.75    0.00   -0.17    0.00    0.00    0.00    4.27     3.8     4.1    4.09    4.11    4.11    4.12    4.12    4.12    4.13    0.00    0.00    0.21    0.21    0.20    0.20    0.20    0.20    0.19    0.19    4.27    3.83    4.28    4.30    4.31    4.31    4.31    4.32    4.31    4.32
   15 085     9     0     0   129.6   124.7     4.8     0.0    0.60    8.10    0.00    0.76    0.00   -0.16    0.00    0.00    0.00    4.33     3.8     4.1    4.11    4.12    4.13    4.13    4.14    4.14    4.15    0.00    0.00    0.20    0.19    0.19    0.18    0.18    0.18    0.17    0.17    4.33    3.81    4.27    4.30    4.31    4.31    4.31    4.32    4.31    4.32
   15 086    10     0     0   129.6   125.2     4.4     0.0    0.63    8.55    0.00    0.78    0.00   -0.14    0.00    0.00    0.00    4.37     3.8     4.1    4.12    4.14    4.14    4.15    4.15    4.16    4.16    0.00    0.00    0.18    0.17    0.17    0.17    0.17    0.16    0.16    0.15    4.37    3.78    4.27    4.29    4.31    4.31    4.31    4.32    4.31    4.32
   15 087    11     0     0   129.6   125.6     4.0     0.0    0.67    8.98    0.00    0.81    0.00   -0.14    0.00    0.00    0.00    4.42     3.7     4.1    4.13    4.15    4.16    4.16    4.17    4.17    4.18    0.00    0.00    0.17    0.16    0.16    0.16    0.15    0.15    0.14    0.14    4.42    3.75    4.26    4.29    4.31    4.31    4.32    4.32    4.32    4.32
   15 088    12     0     0   129.6   125.9     3.7     0.0    0.73    9.38    0.00    0.86    0.00   -0.13    0.00    0.00    0.00    4.46     3.7     4.1    4.14    4.16    4.17    4.18    4.18    4.18    4.19    0.00    0.00    0.16    0.15    0.15    0.14    0.14    0.14    0.13    0.13    4.46    3.70    4.26    4.29    4.31    4.31    4.32    4.32    4.32    4.32
   15 089    13     0     0   129.4   126.1     3.4     0.0    0.81    9.77    0.00    0.93    0.00   -0.12    0.18    0.00    0.00    3.39     4.1     4.1    4.15    4.18    4.18    4.19    4.20    4.20    4.20    0.00    0.00    0.14    0.14    0.14    0.13    0.13    0.13    0.12    0.12    3.39    4.05    4.25    4.29    4.31    4.31    4.32    4.32    4.32    4.32
   15 090    14     0     0   129.3   126.2     3.1     0.0    0.87   10.11    0.00    1.00    0.00   -0.13    0.32    0.00    0.00    2.76     4.1     4.3    4.16    4.19    4.19    4.20    4.21    4.21    4.22    0.00    0.00    0.13    0.13    0.13    0.12    0.12    0.12    0.11    0.11    2.76    4.10    4.48    4.29    4.31    4.31    4.32    4.32    4.32    4.32
   15 091    15     0     0   129.2   126.3     2.8     0.0    0.94   10.43    0.00    1.08    0.00   -0.14    0.43    0.00    0.00    2.57     4.0     4.7    4.24    4.18    4.19    4.20    4.21    4.21    4.22    0.00    0.00    0.13    0.12    0.12    0.11    0.11    0.11    0.10    0.10    2.57    3.96    4.81    4.36    4.30    4.30    4.31    4.32    4.31    4.32
   15 092    16     0     0   129.0   126.4     2.6     0.0    0.99   10.71    0.00    1.13    0.00   -0.14    0.61    0.00    0.00    2.40     3.7     4.9    4.48    4.18    4.18    4.20    4.21    4.21    4.22    0.00    0.00    0.12    0.11    0.11    0.10    0.10    0.10    0.09    0.09    2.40    3.73    4.98    4.59    4.28    4.28    4.30    4.31    4.30    4.31
   15 093    17     0     0   128.9   126.5     2.4     0.0    1.03   10.95    0.00    1.16    0.00   -0.14    0.65    0.00    0.00    2.35     3.4     4.5    4.56    4.55    4.29    4.20    4.22    4.21    4.23    0.00    0.00    0.11    0.10    0.10    0.10    0.09    0.09    0.09    0.08    2.35    3.44    4.57    4.66    4.65    4.38    4.29    4.31    4.30    4.31
   15 094    18     0     0   128.9   126.7     2.2     0.0    1.04   11.17    0.00    1.16    0.00   -0.13    0.69    0.00    0.00    2.63     3.4     4.6    4.63    4.59    4.26    4.19    4.21    4.20    4.22    0.00    0.00    0.10    0.09    0.09    0.09    0.09    0.08    0.08    0.08    2.63    3.40    4.67    4.72    4.68    4.35    4.27    4.30    4.28    4.30
   15 095    19     0     0   128.8   126.8     2.0     0.0    1.04   11.35    0.00    1.16    0.00   -0.12    0.78    0.00    0.00    2.57     3.2     4.3    4.57    4.58    4.60    4.28    4.21    4.20    4.22    0.00    0.00    0.10    0.09    0.09    0.08    0.08    0.08    0.07    0.07    2.57    3.23    4.37    4.66    4.67    4.68    4.36    4.29    4.28    4.29
   15 096    20     0     0   128.8   126.9     1.8     0.0    1.04   11.51    0.00    1.16    0.00   -0.12    0.84    0.00    0.00    2.85     3.2     4.3    4.57    4.61    4.59    4.27    4.21    4.20    4.22    0.00    0.00    0.09    0.08    0.08    0.08    0.07    0.07    0.07    0.06    2.85    3.21    4.37    4.65    4.69    4.66    4.34    4.28    4.26    4.28
   15 097    21     0     0   128.7   127.0     1.7     0.0    1.04   11.66    0.00    1.16    0.00   -0.12    0.88    0.00    0.00    3.09     3.2     4.2    4.55    4.59    4.61    4.28    4.21    4.20    4.22    0.00    0.00    0.09    0.08    0.08    0.07    0.07    0.07    0.06    0.06    3.09    3.20    4.32    4.63    4.67    4.68    4.35    4.28    4.26    4.28
   15 098    22    40     1   142.3   127.1    15.2    26.4    1.04   11.79    0.00    1.16    0.00   -0.12    0.91    0.00    0.00    3.73     3.2     4.3    4.52    4.56    4.58    4.26    4.20    4.18    4.21   20.32    0.38    0.08    0.07    0.07    0.07    0.06    0.06    0.06    0.05   24.04    3.58    4.36    4.59    4.63    4.65    4.33    4.26    4.24    4.26
   15 099    23    40     1   151.6   128.1    23.5    17.0    1.04   12.78    0.00    1.16    0.00   -0.12    1.00    0.00    0.00    5.04     3.2     4.3    4.52    4.57    4.58    4.27    4.21    4.19    4.21   32.90    0.64    0.08    0.07    0.07    0.06    0.06    0.06    0.05    0.05   37.93    3.84    4.35    4.58    4.63    4.64    4.33    4.26    4.24    4.26
   15 100    24    40     1   157.9   129.6    28.3    10.3    1.05   14.47    0.00    1.16    0.00   -0.12    1.42    0.00    0.00    7.26     3.2     4.3    4.52    4.57    4.59    4.27    4.21    4.19    4.22   40.15    0.80    0.07    0.06    0.06    0.06    0.05    0.05    0.05    0.05   47.40    4.00    4.35    4.58    4.63    4.64    4.33    4.26    4.24    4.26
   15 101    25    40     1   161.9   131.7    30.2     5.7    1.09   16.80    0.00    1.22    0.00   -0.12    2.00    0.00    0.00   10.36     3.2     4.3    4.52    4.57    4.59    4.28    4.22    4.20    4.22   43.17    0.85    0.07    0.06    0.06    0.05    0.05    0.05    0.04    0.04   53.53    4.05    4.34    4.58    4.63    4.64    4.33    4.26    4.24    4.26
   15 102    26    40     1   164.1   134.3    29.8     2.8    1.19   19.72    0.00    1.33    0.00   -0.14    2.71    0.00    0.00   14.26     3.2     4.3    4.52    4.58    4.60    4.28    4.22    4.20    4.23   42.69    0.79    0.06    0.06    0.06    0.05    0.05    0.05    0.04    0.04   56.95    3.94    4.34    4.58    4.63    4.65    4.33    4.27    4.24    4.27
   15 103    27    40     1   164.9   137.2    27.6     1.2    1.34   23.08    0.00    1.48    0.00   -0.14    3.45    0.00    0.00   18.81     3.1     4.3    4.53    4.58    4.60    4.29    4.23    4.20    4.23   39.69    0.64    0.07    0.06    0.06    0.05    0.05    0.05    0.04    0.04   58.50    3.71    4.33    4.58    4.64    4.65    4.34    4.27    4.25    4.27
   15 104    28    40     1   164.7   139.8    24.8     0.5    1.51   26.32    0.00    1.64    0.00   -0.12    4.40    0.00    0.00   23.18     2.8     4.2    4.53    4.59    4.61    4.29    4.23    4.21    4.24   35.68    0.44    0.07    0.06    0.06    0.05    0.05    0.05    0.04    0.04   58.87    3.25    4.29    4.59    4.65    4.66    4.34    4.28    4.25    4.28
   15 105    29    40     1   164.4   142.1    22.3     0.2    1.70   29.08    0.00    1.78    0.00   -0.08    5.01    0.00    0.00   27.05     2.6     4.2    4.52    4.59    4.61    4.30    4.24    4.22    4.24   32.03    0.27    0.07    0.06    0.06    0.05    0.05    0.05    0.04    0.04   59.09    2.84    4.23    4.58    4.65    4.66    4.35    4.29    4.26    4.28
   15 106    30    40     1   164.0   144.0    20.0     0.1    1.91   31.48    0.00    1.91    0.00   -0.00    5.50    0.00    0.00   30.46     2.3     4.1    4.50    4.60    4.62    4.30    4.24    4.22    4.25   28.75    0.14    0.07    0.06    0.06    0.05    0.05    0.05    0.04    0.04   59.21    2.48    4.13    4.56    4.66    4.67    4.36    4.30    4.27    4.29
   15 107    31    40     1   163.7   145.7    18.0     0.0    2.14   33.66    0.00    2.03    0.00    0.11    6.03    0.00    0.00   11.44    10.9     6.6    4.94    4.73    4.69    4.31    4.25    4.23    4.25   25.73    0.04    0.07    0.06    0.07    0.06    0.06    0.05    0.05    0.04   37.17   10.94    6.70    5.00    4.79    4.75    4.37    4.31    4.27    4.30
   15 108    32    40     1   159.7   144.7    15.0     0.0    2.37   34.99    0.00    2.23    0.00    0.14   10.04    0.00    0.00   11.18     9.2     6.7    4.96    4.75    4.70    4.60    4.66    4.36    4.25   21.08    0.00    0.08    0.07    0.07    0.06    0.06    0.06    0.05    0.05   32.26    9.19    6.75    5.03    4.82    4.76    4.66    4.72    4.40    4.30
   15 109    33    40     1   158.0   145.4    12.6     0.0    2.56   36.61    0.00    2.39    0.00    0.18   11.76    0.00    0.00   13.38     8.4     6.5    5.00    4.75    4.69    4.62    4.67    4.49    4.25   17.45    0.00    0.09    0.07    0.07    0.06    0.06    0.06    0.05    0.05   30.83    8.38    6.55    5.07    4.82    4.75    4.68    4.73    4.54    4.30
   15 110    34    40     1   156.8   146.0    10.8     0.0    2.73   38.02    0.00    2.51    0.00    0.22   12.99    0.00    0.00   16.31     7.8     6.2    4.96    4.74    4.69    4.61    4.66    4.48    4.24   14.59    0.00    0.09    0.07    0.07    0.06    0.06    0.06    0.05    0.05   30.90    7.80    6.26    5.03    4.81    4.75    4.66    4.72    4.52    4.29
   15 111    35    40     1   155.1   145.9     9.1     0.0    2.86   39.09    0.00    2.58    0.00    0.28   14.81    0.00    0.00   18.29     7.2     5.9    4.87    4.70    4.66    4.59    4.65    4.46    4.23   12.06    0.00    0.09    0.07    0.07    0.06    0.06    0.06    0.05    0.04   30.35    7.21    6.00    4.94    4.77    4.72    4.65    4.71    4.51    4.28
   15 112    36    40     1   152.6   144.9     7.6     0.0    2.96   39.91    0.00    2.62    0.00    0.35   17.36    0.00    0.00   17.92     6.7     5.7    4.79    4.70    4.67    4.60    4.66    4.47    4.24    9.81    0.00    0.08    0.07    0.07    0.06    0.06    0.05    0.04    0.04   27.73    6.72    5.81    4.86    4.77    4.73    4.65    4.71    4.51    4.28
   15 113    37    40     1   149.8   143.3     6.4     0.0    3.07   40.61    0.00    2.65    0.00    0.42   20.23    0.00    0.00   17.55     6.0     5.4    4.61    4.69    4.67    4.60    4.66    4.47    4.24    8.04    0.00    0.08    0.07    0.07    0.06    0.05    0.05    0.04    0.04   25.59    5.96    5.44    4.68    4.76    4.73    4.65    4.72    4.51    4.28
   15 114    38    40     1   148.5   142.8     5.8     0.0    3.18   41.24    0.00    2.67    0.00    0.51   21.56    0.00    0.00   18.03     5.5     5.1    4.47    4.68    4.68    4.61    4.67    4.47    4.25    7.03    0.00    0.07    0.06    0.07    0.06    0.05    0.05    0.04    0.04   25.06    5.51    5.18    4.53    4.74    4.73    4.66    4.72    4.52    4.29
   15 115    39    40     1   146.4   141.2     5.2     0.0    3.30   41.81    0.00    2.69    0.00    0.61   23.77    0.00    0.00   18.43     4.7     4.6    4.16    4.63    4.68    4.61    4.67    4.48    4.25    6.17    0.00    0.07    0.06    0.07    0.06    0.05    0.05    0.04    0.04   24.60    4.69    4.65    4.22    4.69    4.74    4.66    4.72    4.52    4.29
   15 116    40    40     1   143.8   139.4     4.4     0.0    3.45   42.35    0.00    2.71    0.00    0.73   26.51    0.00    0.00   18.04     4.0     4.1    3.83    4.54    4.69    4.62    4.68    4.48    4.25    5.04    0.00    0.06    0.06    0.06    0.06    0.05    0.05    0.04    0.04   23.08    4.04    4.14    3.89    4.61    4.74    4.67    4.73    4.53    4.29
   15 117    41    40     1   140.5   136.9     3.6     0.0    3.62   42.81    0.00    2.73    0.00    0.89   30.02    0.00    0.00   14.74     4.4     3.6    3.50    4.42    4.69    4.62    4.68    4.49    4.26    3.72    0.00    0.06    0.05    0.06    0.06    0.05    0.05    0.04    0.04   18.46    4.37    3.66    3.55    4.48    4.75    4.68    4.74    4.53    4.30
   15 118    42    40     1   136.0   133.5     2.5     0.0    3.81   43.14    0.00    2.76    0.00    1.05   34.65    0.00    0.00    8.53     5.1     3.4    3.36    4.35    4.70    4.63    4.69    4.49    4.26    1.89    0.00    0.06    0.06    0.07    0.06    0.06    0.05    0.04    0.04   10.42    5.10    3.48    3.42    4.41    4.76    4.68    4.74    4.54    4.31
   15 119    43    40     1   133.7   131.6     2.1     0.0    4.02   43.39    0.00    2.77    0.00    1.24   37.15    0.00    0.00    6.78     4.8     3.2    3.22    4.24    4.70    4.63    4.69    4.49    4.27    1.33    0.00    0.07    0.06    0.07    0.06    0.06    0.06    0.04    0.04    8.11    4.78    3.29    3.28    4.30    4.76    4.69    4.75    4.54    4.31
   15 120    44    40     1   132.5   130.6     1.9     0.0    4.22   43.63    0.00    2.78    0.00    1.44   38.53    0.00    0.00    6.11     4.6     3.1    3.18    4.18    4.69    4.62    4.69    4.49    4.26    0.96    0.00    0.07    0.06    0.07    0.06    0.06    0.06    0.05    0.04    7.07    4.57    3.21    3.24    4.25    4.75    4.68    4.75    4.53    4.31
   15 121    45    40     1   129.7   128.1     1.7     0.0    4.42   43.85    0.00    2.78    0.00    1.64   41.50    0.00    0.00    1.77     3.1     4.2    3.80    4.44    4.83    4.70    4.69    4.49    4.26    0.52    0.01    0.07    0.06    0.07    0.06    0.06    0.06    0.05    0.04    2.30    3.14    4.29    3.86    4.51    4.90    4.76    4.74    4.53    4.31
   15 122    46    40     1   127.6   126.0     1.5     0.0    4.60   44.00    0.00    2.78    0.00    1.82   43.83    0.00    0.00    1.10     2.5     3.6    3.46    4.10    4.91    4.85    4.81    4.49    4.26    0.32    0.02    0.07    0.06    0.07    0.06    0.06    0.06    0.05    0.04    1.42    2.52    3.71    3.52    4.17    4.97    4.91    4.86    4.53    4.31
   15 123    47    40     1   125.3   123.9     1.4     0.0    4.75   44.14    0.00    2.78    0.00    1.97   46.28    0.00    0.00    0.39     1.7     2.9    3.17    3.80    4.89    5.02    4.95    4.56    4.27    0.13    0.03    0.07    0.06    0.06    0.06    0.06    0.06    0.05    0.04    0.53    1.72    2.99    3.22    3.86    4.96    5.08    5.00    4.61    4.31
   15 124    48    40     1   124.0   122.6     1.4     0.0    4.94   44.28    0.01    2.78    0.00    2.17   47.78    0.00    0.00    0.30     1.3     2.2    2.57    3.10    4.16    4.62    4.74    4.62    4.61    0.10    0.04    0.07    0.06    0.06    0.07    0.06    0.06    0.05    0.04    0.40    1.33    2.25    2.63    3.17    4.22    4.68    4.80    4.66    4.65
   15 125    49    40     1   121.8   120.4     1.4     0.0    5.22   44.44    0.01    2.78    0.00    2.45   50.21    0.00    0.00    0.11     0.9     1.7    2.11    2.67    3.96    4.65    4.80    4.65    4.64    0.04    0.05    0.07    0.06    0.06    0.07    0.07    0.06    0.05    0.04    0.15    0.92    1.76    2.16    2.73    4.03    4.71    4.86    4.70    4.68
   15 126    50    40     1   119.9   118.3     1.5     0.0    5.59   44.62    0.02    2.78    0.00    2.81   52.51    0.00    0.00    0.05     0.4     0.9    1.61    2.31    3.68    4.71    4.92    4.71    4.67    0.04    0.07    0.07    0.06    0.06    0.07    0.07    0.07    0.05    0.05    0.09    0.46    1.01    1.66    2.37    3.75    4.78    4.98    4.76    4.72
   15 127    51    40     1   119.2   117.5     1.7     0.0    5.98   44.80    0.07    2.78    0.00    3.20   53.53    0.00    0.00    0.04     0.3     0.7    1.24    1.78    2.83    3.97    4.47    4.56    4.62    0.06    0.11    0.08    0.07    0.07    0.07    0.08    0.07    0.06    0.05    0.10    0.41    0.75    1.30    1.85    2.90    4.05    4.54    4.62    4.67
   15 128    52    40     1   116.3   114.6     1.7     0.0    6.41   45.02    0.09    2.78    0.00    3.63   55.17    1.63    0.00    0.02     0.2     0.5    0.92    1.37    2.28    3.61    4.25    4.50    4.60    0.04    0.13    0.08    0.07    0.07    0.07    0.08    0.08    0.06    0.05    0.05    0.33    0.56    0.99    1.43    2.35    3.69    4.33    4.56    4.65
   15 129    53    40     1   114.9   113.1     1.8     0.0    6.87   45.25    0.09    2.78    0.00    4.09   57.03    1.63    0.00    0.01     0.1     0.3    0.66    1.04    1.92    3.55    4.27    4.51    4.60    0.04    0.13    0.07    0.06    0.06    0.07    0.09    0.08    0.06    0.06    0.05    0.25    0.40    0.72    1.10    1.98    3.63    4.35    4.57    4.66
   15 130    54    40     1   113.1   111.3     1.8     0.0    7.29   45.48    0.10    2.78    0.00    4.51   58.79    2.14    0.00    0.00     0.1     0.2    0.43    0.73    1.51    3.31    4.18    4.50    4.59    0.04    0.11    0.06    0.06    0.06    0.06    0.09    0.09    0.07    0.06    0.04    0.18    0.27    0.49    0.79    1.57    3.40    4.27    4.56    4.66
   15 131    55    40     1   111.8   110.1     1.7     0.0    7.66   45.69    0.10    2.78    0.00    4.88   60.37    2.14    0.00    0.00     0.0     0.1    0.28    0.51    1.20    3.15    4.19    4.50    4.60    0.03    0.10    0.05    0.05    0.05    0.05    0.09    0.09    0.07    0.06    0.03    0.14    0.18    0.33    0.56    1.26    3.24    4.28    4.57    4.66
   15 132    56    40     1   110.9   109.2     1.7     0.0    8.04   45.91    0.10    2.78    0.00    5.27   61.69    2.14    0.00    0.00     0.0     0.1    0.19    0.36    0.96    2.93    4.20    4.50    4.60    0.03    0.09    0.05    0.04    0.05    0.05    0.08    0.09    0.07    0.06    0.03    0.11    0.13    0.23    0.41    1.01    3.01    4.29    4.57    4.66
   15 133    57    40     1   110.2   108.4     1.8     0.0    8.46   46.15    0.10    2.78    0.00    5.68   62.84    2.14    0.00    0.00     0.0     0.1    0.13    0.27    0.78    2.66    4.22    4.50    4.60    0.04    0.09    0.05    0.05    0.05    0.05    0.08    0.09    0.07    0.07    0.05    0.11    0.11    0.18    0.32    0.83    2.73    4.31    4.58    4.67
   15 134    58    40     1   109.5   107.7     1.8     0.0    8.90   46.41    0.10    2.78    0.00    6.12   63.92    2.14    0.00    0.00     0.0     0.0    0.10    0.21    0.64    2.33    4.23    4.51    4.61    0.04    0.08    0.05    0.05    0.05    0.05    0.07    0.09    0.07    0.07    0.04    0.11    0.10    0.15    0.26    0.69    2.40    4.32    4.58    4.68
   15 135    59    40     1   109.0   107.2     1.8     0.0    9.34   46.68    0.10    2.78    0.00    6.56   64.93    2.14    0.00    0.00     0.0     0.0    0.08    0.17    0.52    2.00    4.23    4.52    4.62    0.04    0.08    0.06    0.05    0.05    0.05    0.07    0.09    0.07    0.07    0.04    0.10    0.10    0.13    0.22    0.57    2.07    4.33    4.59    4.69
   15 136    60    40     1   108.5   106.7     1.8     0.0    9.77   46.95    0.11    2.78    0.00    6.99   65.86    2.14    0.00    0.00     0.0     0.0    0.06    0.13    0.42    1.69    4.21    4.53    4.63    0.04    0.08    0.06    0.05    0.05    0.05    0.06    0.09    0.07    0.07    0.04    0.09    0.09    0.12    0.18    0.47    1.75    4.30    4.60    4.70
   15 137    61    40     1   108.0   106.2     1.8     0.0   10.19   47.21    0.11    2.78    0.00    7.41   66.71    2.14    0.00    0.00     0.0     0.0    0.05    0.11    0.35    1.44    4.17    4.54    4.64    0.03    0.07    0.06    0.05    0.05    0.05    0.06    0.09    0.07    0.07    0.04    0.09    0.09    0.11    0.16    0.40    1.50    4.26    4.61    4.70
   15 138    62    40     1   107.6   105.8     1.8     0.0   10.58   47.46    0.11    2.78    0.00    7.80   67.53    2.14    0.00    0.00     0.0     0.0    0.05    0.09    0.29    1.23    4.06    4.55    4.64    0.03    0.07    0.06    0.05    0.05    0.05    0.06    0.09    0.07    0.07    0.03    0.08    0.09    0.10    0.14    0.33    1.28    4.15    4.62    4.71
   15 139    63    40     1   107.1   105.4     1.8     0.0   10.95   47.71    0.11    2.78    0.00    8.17   68.35    2.14    0.00    0.00     0.0     0.0    0.04    0.07    0.23    1.02    3.91    4.56    4.66    0.03    0.07    0.06    0.05    0.05    0.05    0.05    0.09    0.07    0.07    0.03    0.08    0.09    0.10    0.13    0.28    1.07    4.00    4.63    4.72
   15 140    64    40     1   106.7   104.9     1.8     0.0   11.32   47.95    0.11    2.78    0.00    8.54   69.16    2.14    0.00    0.00     0.0     0.0    0.04    0.07    0.19    0.86    3.70    4.57    4.66    0.05    0.08    0.05    0.05    0.05    0.05    0.05    0.08    0.07    0.07    0.05    0.09    0.07    0.08    0.12    0.24    0.91    3.78    4.64    4.73
   15 141    65    40     1   106.3   104.5     1.8     0.0   11.67   48.17    0.11    2.78    0.00    8.89   69.94    2.14    0.00    0.00     0.0     0.0    0.03    0.05    0.16    0.72    3.46    4.58    4.67    0.06    0.10    0.06    0.05    0.04    0.04    0.05    0.08    0.07    0.07    0.06    0.11    0.08    0.08    0.09    0.21    0.77    3.54    4.65    4.74
   15 142    66    40     1   104.2   102.4     1.8     0.0   12.00   48.39    0.11    2.78    0.00    9.23   70.72    3.80    0.00    0.00     0.0     0.0    0.02    0.03    0.09    0.49    2.64    4.36    4.65    0.05    0.11    0.07    0.05    0.04    0.04    0.05    0.07    0.07    0.06    0.05    0.12    0.08    0.08    0.08    0.13    0.54    2.71    4.43    4.71
   15 143    67    40     1   103.7   102.0     1.7     0.0   12.32   48.59    0.11    2.78    0.00    9.54   71.47    3.80    0.00    0.00     0.0     0.0    0.02    0.02    0.07    0.40    2.42    4.38    4.65    0.03    0.10    0.06    0.05    0.04    0.04    0.04    0.07    0.07    0.06    0.03    0.11    0.07    0.06    0.06    0.10    0.44    2.49    4.45    4.72
   15 144    68    40     1   103.3   101.7     1.6     0.0   12.60   48.76    0.11    2.78    0.00    9.82   72.14    3.80    0.00    0.00     0.0     0.0    0.01    0.02    0.05    0.31    2.18    4.40    4.66    0.03    0.09    0.05    0.04    0.04    0.03    0.04    0.06    0.07    0.06    0.03    0.10    0.06    0.05    0.05    0.08    0.35    2.24    4.47    4.72
   15 145    69    40     1   103.0   101.4     1.6     0.0   12.86   48.93    0.11    2.78    0.00   10.08   72.75    3.80    0.00    0.00     0.0     0.0    0.01    0.01    0.04    0.25    1.93    4.37    4.72    0.02    0.08    0.04    0.03    0.03    0.03    0.04    0.06    0.07    0.06    0.02    0.09    0.06    0.05    0.05    0.07    0.29    2.00    4.44    4.78
   15 146    70    40     1   101.3    99.7     1.5     0.0   13.16   49.10    0.11    2.78    0.00   10.39   73.31    5.25    0.00    0.00     0.0     0.0    0.01    0.01    0.03    0.18    1.52    4.10    4.66    0.02    0.07    0.04    0.03    0.03    0.03    0.04    0.06    0.07    0.06    0.02    0.08    0.05    0.04    0.04    0.06    0.22    1.58    4.17    4.72
   15 147    71    40     1   100.5    99.0     1.5     0.0   13.49   49.28    0.11    2.78    0.00   10.71   73.86    5.81    0.00    0.00     0.0     0.0    0.01    0.01    0.02    0.14    1.28    3.99    4.64    0.03    0.06    0.04    0.03    0.03    0.03    0.04    0.06    0.07    0.06    0.03    0.07    0.05    0.04    0.04    0.05    0.18    1.34    4.06    4.70
   15 148    72    40     1   100.2    98.7     1.5     0.0   13.80   49.45    0.11    2.78    0.00   11.02   74.40    5.84    0.00    0.00     0.0     0.0    0.01    0.01    0.02    0.12    1.14    3.95    4.64    0.02    0.06    0.03    0.03    0.03    0.03    0.04    0.06    0.07    0.06    0.02    0.06    0.04    0.04    0.04    0.05    0.15    1.20    4.02    4.71
   15 149    73    40     1   100.0    98.5     1.5     0.0   14.11   49.62    0.11    2.78    0.00   11.34   74.94    5.84    0.00    0.00     0.0     0.0    0.00    0.01    0.01    0.10    1.03    3.92    4.65    0.03    0.05    0.03    0.03    0.03    0.03    0.04    0.06    0.07    0.06    0.03    0.05    0.04    0.03    0.04    0.04    0.14    1.08    3.99    4.71
   15 150    74    40     1    99.8    98.3     1.5     0.0   14.46   49.80    0.11    2.78    0.00   11.68   75.52    5.84    0.00    0.00     0.0     0.0    0.00    0.01    0.01    0.08    0.92    3.86    4.66    0.03    0.05    0.03    0.03    0.03    0.03    0.04    0.05    0.07    0.07    0.03    0.06    0.04    0.03    0.04    0.04    0.12    0.97    3.93    4.72
   15 151    75    40     1    99.5    98.0     1.5     0.0   14.80   49.99    0.11    2.78    0.00   12.03   76.13    5.84    0.00    0.00     0.0     0.0    0.00    0.01    0.01    0.07    0.82    3.78    4.66    0.03    0.06    0.03    0.03    0.03    0.03    0.04    0.05    0.07    0.07    0.03    0.06    0.04    0.04    0.04    0.04    0.11    0.87    3.85    4.73
   15 152    76    80     2   126.5    97.7    28.8    12.7   15.18   50.19    0.11    2.78    0.00   12.41   76.78    5.84    0.00    0.00     0.0     0.0    0.01    0.01    0.01    0.06    0.73    3.68    4.67   42.31    0.06    0.04    0.03    0.03    0.03    0.04    0.05    0.07    0.07   42.31    0.07    0.04    0.04    0.04    0.04    0.10    0.78    3.75    4.74
   15 153    77    80     2   130.4   101.4    29.0     3.3   15.68   54.23    0.12    2.78    0.00   12.90   82.78    5.84    0.00    5.87     0.0     0.0    0.01    0.01    0.01    0.06    0.70    3.63    4.68   42.46    0.08    0.05    0.04    0.04    0.04    0.05    0.06    0.07    0.07   48.33    0.09    0.06    0.05    0.05    0.05    0.11    0.75    3.70    4.75
   15 154    78    80     2   127.6   104.5    23.1     0.7   16.27   59.10    0.12    2.78    0.00   13.49   88.78    5.84    0.00   10.68     0.0     0.0    0.01    0.02    0.02    0.07    0.68    3.57    4.69   32.98    0.11    0.06    0.05    0.05    0.05    0.05    0.06    0.07    0.07   43.66    0.13    0.07    0.07    0.07    0.07    0.12    0.74    3.65    4.76
   15 155    79    80     2   122.8   106.3    16.5     0.1   16.92   63.22    0.12    2.78    0.00   14.15   94.78    5.84    0.00   13.34     0.0     0.0    0.02    0.02    0.03    0.07    0.66    3.51    4.70   22.65    0.14    0.07    0.06    0.06    0.06    0.06    0.07    0.07    0.08   35.99    0.17    0.09    0.08    0.08    0.08    0.13    0.73    3.59    4.77
   15 156    80    80     2   117.6   106.4    11.2     0.0   17.64   66.26    0.12    2.78    0.00   14.86  100.78    5.84    0.00   13.95     0.0     0.0    0.03    0.03    0.03    0.07    0.61    3.38    4.71   14.21    0.17    0.07    0.07    0.06    0.06    0.06    0.07    0.07    0.08   28.16    0.21    0.10    0.09    0.09    0.09    0.13    0.68    3.45    4.79
   15 157    81    80     2   114.3   106.4     7.9     0.0   18.42   68.61    0.12    2.78    0.00   15.64  104.83    5.84    0.00   14.58     0.1     0.0    0.03    0.03    0.03    0.07    0.54    3.18    4.72    9.03    0.20    0.08    0.07    0.07    0.06    0.06    0.07    0.07    0.08   23.61    0.26    0.11    0.10    0.10    0.09    0.13    0.61    3.25    4.80
   15 158    82    80     2   109.2   104.2     5.0     0.0   19.30   70.01    0.12    2.78    0.00   16.52  110.83    5.84    0.00   11.00     0.1     0.0    0.04    0.04    0.04    0.08    0.53    3.09    4.74    4.27    0.26    0.08    0.08    0.08    0.07    0.07    0.07    0.07    0.08   15.27    0.36    0.13    0.12    0.12    0.11    0.15    0.60    3.16    4.82
   15 159    83    80     2   104.1   100.7     3.4     0.0   20.20   70.83    0.12    2.78    0.00   17.43  116.83    5.84    0.00    3.35     1.5     0.2    0.05    0.05    0.05    0.08    0.48    2.84    4.75    1.61    0.31    0.08    0.07    0.07    0.07    0.07    0.07    0.07    0.09    4.96    1.85    0.29    0.12    0.13    0.12    0.15    0.55    2.91    4.84
   15 160    84    80     2   101.0    98.0     3.0     0.0   21.23   71.34    0.12    2.78    0.00   18.45  120.96    5.84    0.00    1.59     0.7     0.2    0.06    0.06    0.05    0.08    0.44    2.59    4.75    0.91    0.37    0.08    0.07    0.07    0.07    0.07    0.07    0.07    0.09    2.49    1.11    0.31    0.13    0.13    0.12    0.15    0.51    2.65    4.84
   15 161    85    80     2    98.3    95.8     2.6     0.0   22.18   71.75    0.12    2.78    0.00   19.40  124.56    5.84    0.00    0.00     0.3     0.1    0.07    0.06    0.06    0.08    0.40    2.34    4.75    0.25    0.38    0.06    0.07    0.07    0.06    0.07    0.07    0.06    0.09    0.26    0.70    0.19    0.14    0.13    0.12    0.15    0.47    2.41    4.83
   15 162    86    80     2    97.3    94.9     2.4     0.0   23.03   72.12    0.13    2.78    0.00   20.25  126.42    5.84    0.00    0.00     0.1     0.1    0.06    0.06    0.06    0.08    0.37    2.11    4.73    0.17    0.35    0.05    0.07    0.07    0.06    0.07    0.07    0.06    0.09    0.17    0.48    0.11    0.13    0.13    0.12    0.15    0.44    2.17    4.82
   15 163    87    80     2    96.5    94.1     2.4     0.0   23.82   72.45    0.13    2.78    0.00   21.04  128.03    5.84    0.00    0.00     0.1     0.0    0.06    0.07    0.06    0.08    0.34    1.90    4.70    0.13    0.33    0.05    0.06    0.07    0.06    0.06    0.07    0.06    0.09    0.13    0.38    0.08    0.12    0.13    0.12    0.14    0.41    1.96    4.78
   15 164    88    80     2    95.8    93.5     2.3     0.0   24.59   72.79    0.13    2.78    0.00   21.82  129.50    5.84    0.00    0.00     0.0     0.0    0.05    0.07    0.06    0.08    0.32    1.71    4.64    0.11    0.33    0.05    0.06    0.07    0.06    0.06    0.07    0.06    0.08    0.11    0.37    0.07    0.11    0.13    0.12    0.14    0.39    1.77    4.72
   15 165    89    80     2    95.2    92.8     2.4     0.0   25.42   73.14    0.13    2.78    0.00   22.64  130.95    5.84    0.00    0.00     0.0     0.0    0.05    0.07    0.06    0.08    0.30    1.54    4.54    0.12    0.35    0.05    0.06    0.06    0.06    0.06    0.07    0.06    0.08    0.13    0.38    0.06    0.11    0.14    0.12    0.14    0.37    1.59    4.62
   15 166    90    80     2    94.6    92.2     2.4     0.0   26.36   73.52    0.13    2.78    0.00   23.58  132.50    5.84    0.00    0.00     0.0     0.0    0.05    0.08    0.07    0.09    0.29    1.39    4.40    0.12    0.39    0.05    0.06    0.06    0.06    0.06    0.07    0.06    0.08    0.12    0.42    0.06    0.11    0.14    0.13    0.15    0.35    1.44    4.49
   15 167    91    80     2    94.1    91.5     2.6     0.0   27.23   73.92    0.13    2.78    0.00   24.46  133.87    5.84    0.00    0.01     0.1     0.0    0.03    0.08    0.08    0.09    0.27    1.25    4.23    0.16    0.52    0.07    0.06    0.07    0.06    0.06    0.07    0.06    0.08    0.17    0.58    0.09    0.09    0.15    0.14    0.15    0.34    1.30    4.31
   15 168    92    80     2    93.3    90.7     2.6     0.0   28.16   74.32    0.13    2.78    0.00   25.38  135.61    5.84    0.00    0.00     0.1     0.0    0.02    0.05    0.08    0.09    0.25    1.12    4.05    0.15    0.52    0.07    0.05    0.06    0.06    0.06    0.07    0.06    0.08    0.15    0.60    0.09    0.07    0.10    0.14    0.15    0.32    1.18    4.12
   15 169    93    80     2    92.2    89.8     2.4     0.0   29.03   74.68    0.13    2.78    0.00   26.25  137.51    5.84    0.00    0.00     0.1     0.0    0.02    0.03    0.07    0.09    0.24    1.01    3.83    0.13    0.44    0.06    0.05    0.05    0.06    0.06    0.07    0.06    0.07    0.13    0.51    0.08    0.06    0.08    0.13    0.16    0.31    1.07    3.90
   15 170    94    80     2    91.3    88.9     2.4     0.0   29.78   75.01    0.13    2.78    0.00   27.00  139.14    5.84    0.00    0.01     0.1     0.0    0.01    0.02    0.06    0.10    0.23    0.91    3.59    0.18    0.46    0.07    0.05    0.05    0.05    0.06    0.07    0.05    0.07    0.19    0.54    0.09    0.06    0.07    0.11    0.16    0.29    0.96    3.66
   15 171    95    80     2    90.2    88.0     2.3     0.0   30.50   75.30    0.13    2.78    0.00   27.72  140.99    5.84    0.00    0.00     0.1     0.0    0.01    0.01    0.04    0.09    0.21    0.82    3.34    0.16    0.39    0.06    0.04    0.04    0.05    0.06    0.06    0.05    0.06    0.16    0.45    0.08    0.05    0.06    0.09    0.14    0.28    0.87    3.40
   15 172    96    80     2    89.1    87.0     2.1     0.0   31.18   75.56    0.13    2.78    0.00   28.40  142.74    5.84    0.00    0.00     0.0     0.0    0.01    0.01    0.03    0.08    0.20    0.73    3.08    0.14    0.34    0.05    0.04    0.04    0.04    0.05    0.06    0.05    0.06    0.14    0.38    0.07    0.05    0.05    0.07    0.13    0.26    0.79    3.14
   15 173    97    80     2    88.1    86.1     2.0     0.0   31.84   75.81    0.13    2.78    0.00   29.06  144.40    5.84    0.00    0.00     0.0     0.0    0.01    0.01    0.02    0.07    0.19    0.66    2.83    0.13    0.31    0.05    0.04    0.04    0.04    0.05    0.06    0.05    0.06    0.13    0.34    0.06    0.04    0.05    0.06    0.12    0.25    0.71    2.88
   15 174    98    80     2    87.2    85.2     2.0     0.0   32.52   76.05    0.13    2.78    0.00   29.74  146.01    5.84    0.00    0.00     0.0     0.0    0.01    0.01    0.02    0.06    0.18    0.59    2.57    0.12    0.29    0.04    0.03    0.04    0.04    0.05    0.06    0.05    0.05    0.12    0.31    0.05    0.04    0.04    0.05    0.10    0.24    0.64    2.63
   15 175    99    80     2    86.4    84.5     1.9     0.0   33.20   76.28    0.13    2.78    0.00   30.42  147.50    5.84    0.00    0.00     0.0     0.0    0.01    0.01    0.01    0.05    0.17    0.53    2.34    0.12    0.29    0.04    0.03    0.03    0.03    0.04    0.06    0.05    0.05    0.12    0.31    0.04    0.04    0.04    0.05    0.09    0.23    0.58    2.39
   15 176   100    80     2    85.7    83.7     1.9     0.0   33.89   76.51    0.13    2.78    0.00   31.12  148.92    5.84    0.00    0.00     0.0     0.0    0.01    0.01    0.01    0.04    0.16    0.48    2.11    0.12    0.29    0.04    0.03    0.04    0.03    0.04    0.06    0.05    0.05    0.12    0.31    0.04    0.04    0.04    0.05    0.08    0.22    0.53    2.16
   15 177   101    80     2    85.1    83.1     2.0     0.0   34.60   76.75    0.13    2.78    0.00   31.83  150.25    5.84    0.00    0.00     0.0     0.0    0.01    0.01    0.01    0.04    0.15    0.44    1.91    0.13    0.31    0.04    0.04    0.04    0.04    0.04    0.06    0.05    0.05    0.13    0.33    0.04    0.04    0.04    0.05    0.08    0.21    0.49    1.96
   15 178   102    80     2    84.5    82.5     2.0     0.0   35.34   77.01    0.13    2.78    0.00   32.57  151.50    5.84    0.00    0.00     0.0     0.0    0.01    0.01    0.01    0.03    0.15    0.40    1.72    0.14    0.34    0.04    0.04    0.04    0.04    0.04    0.06    0.05    0.05    0.14    0.37    0.05    0.05    0.05    0.05    0.08    0.21    0.45    1.77
   15 179   103    80     2    84.1    82.0     2.1     0.0   36.10   77.28    0.13    2.78    0.00   33.32  152.69    5.84    0.00    0.00     0.0     0.0    0.01    0.01    0.01    0.03    0.14    0.36    1.55    0.16    0.36    0.05    0.04    0.04    0.04    0.05    0.06    0.05    0.05    0.16    0.41    0.05    0.05    0.05    0.05    0.08    0.20    0.41    1.60
   15 180   104    80     2    83.8    81.6     2.2     0.0   36.91   77.60    0.13    2.78    0.00   34.13  153.83    5.84    0.00    0.01     0.1     0.0    0.01    0.01    0.01    0.03    0.14    0.33    1.40    0.22    0.39    0.05    0.05    0.05    0.04    0.05    0.06    0.05    0.05    0.23    0.46    0.06    0.06    0.06    0.06    0.08    0.20    0.38    1.45
   15 181   105    80     2    83.5    81.2     2.3     0.0   37.78   77.95    0.13    2.78    0.00   35.00  154.95    5.84    0.00    0.04     0.1     0.0    0.01    0.02    0.02    0.03    0.14    0.31    1.26    0.30    0.43    0.06    0.05    0.05    0.05    0.05    0.06    0.05    0.05    0.33    0.52    0.07    0.07    0.07    0.06    0.08    0.20    0.36    1.31
   15 182   106    80     2    83.3    80.8     2.5     0.0   38.67   78.38    0.13    2.78    0.00   35.90  156.04    5.84    0.00    0.09     0.1     0.0    0.02    0.02    0.02    0.03    0.14    0.29    1.14    0.36    0.46    0.06    0.06    0.06    0.05    0.05    0.06    0.05    0.05    0.45    0.59    0.08    0.08    0.08    0.07    0.09    0.20    0.34    1.20
   15 183   107   120     3   110.7    80.6    30.1    12.5   39.55   78.88    0.13    2.78    0.00   36.77  157.06    5.84    0.00    0.16     0.2     0.0    0.03    0.03    0.03    0.04    0.14    0.27    1.04   43.10    0.49    0.07    0.06    0.06    0.06    0.06    0.06    0.06    0.05   43.26    0.67    0.10    0.09    0.09    0.08    0.10    0.21    0.33    1.09
   15 184   108   120     3   117.8    86.2    31.7     5.1   40.40   85.26    0.13    2.78    0.00   37.63  158.10    5.84    0.00    9.23     0.2     0.0    0.03    0.04    0.03    0.05    0.15    0.26    0.95   45.37    0.51    0.07    0.06    0.06    0.06    0.06    0.06    0.06    0.05   54.59    0.75    0.11    0.10    0.10    0.09    0.11    0.21    0.32    1.01
   15 185   109   120     3   120.3    92.0    28.3     2.5   41.25   91.95    0.13    2.78    0.00   38.47  159.07    5.84    0.00   18.67     0.3     0.1    0.05    0.05    0.04    0.05    0.16    0.26    0.88   40.09    0.51    0.07    0.07    0.07    0.06    0.06    0.06    0.06    0.06   58.76    0.84    0.12    0.11    0.11    0.10    0.12    0.22    0.31    0.93
   15 186   110   120     3   121.3    97.3    24.0     1.3   42.08   98.07    0.13    2.78    0.00   39.30  160.00    5.84    0.00   27.14     0.4     0.1    0.06    0.06    0.05    0.06    0.17    0.25    0.82   33.46    0.50    0.07    0.07    0.07    0.06    0.06    0.06    0.06    0.06   60.60    0.93    0.14    0.12    0.13    0.11    0.13    0.23    0.31    0.87
   15 187   111   120     3   121.8   101.8    20.0     0.8   42.89  103.32    0.13    2.78    0.00   40.11  160.85    5.84    0.00   34.21     0.5     0.1    0.07    0.07    0.07    0.08    0.18    0.25    0.76   27.29    0.48    0.07    0.07    0.07    0.06    0.06    0.06    0.06    0.06   61.50    1.02    0.16    0.14    0.14    0.13    0.14    0.24    0.31    0.82
   15 188   112   120     3   122.2   106.1    16.1     0.4   43.69  108.31    0.13    2.78    0.00   40.91  161.63    5.84    0.00   40.87     0.7     0.1    0.09    0.09    0.08    0.09    0.19    0.25    0.72   21.30    0.45    0.06    0.06    0.06    0.06    0.06    0.06    0.06    0.06   62.17    1.10    0.17    0.15    0.15    0.14    0.15    0.25    0.31    0.78
   15 189   113   120     3   122.6   110.9    11.7     0.0   44.64  113.69    0.13    2.78    0.00   41.86  162.53    5.84    0.00   40.54     4.2     0.1    0.11    0.11    0.10    0.11    0.21    0.27    0.73   14.47    0.43    0.06    0.06    0.06    0.06    0.06    0.06    0.06    0.06   55.01    4.58    0.19    0.17    0.17    0.16    0.17    0.27    0.33    0.80
   15 190   114   120     3   123.6   114.3     9.3     0.0   45.66  117.13    0.13    2.78    0.00   42.88  162.53    5.84    0.00   43.26     5.1     0.1    0.13    0.13    0.12    0.13    0.23    0.29    0.75   10.64    0.47    0.05    0.06    0.06    0.06    0.06    0.06    0.06    0.07   53.89    5.53    0.20    0.19    0.19    0.17    0.19    0.28    0.34    0.82
   15 191   115   120     3   124.5   116.8     7.7     0.0   46.59  119.59    0.13    2.78    0.00   43.81  162.53    5.84    0.00   46.35     5.1     0.2    0.15    0.15    0.13    0.15    0.24    0.30    0.77    8.19    0.51    0.05    0.06    0.06    0.06    0.06    0.06    0.06    0.07   54.54    5.59    0.21    0.21    0.21    0.19    0.21    0.30    0.36    0.84
   15 192   116   120     3   125.3   118.5     6.8     0.0   47.37  121.35    0.13    2.78    0.00   44.59  162.53    5.84    0.00   48.64     5.0     0.2    0.16    0.16    0.14    0.16    0.25    0.32    0.80    6.66    0.52    0.05    0.06    0.06    0.06    0.06    0.05    0.06    0.07   55.29    5.54    0.22    0.22    0.22    0.20    0.22    0.31    0.38    0.87
   15 193   117   120     3   125.9   120.0     6.0     0.0   48.02  122.78    0.13    2.78    0.00   45.25  162.53    5.84    0.00   50.13     5.1     0.2    0.17    0.17    0.16    0.17    0.26    0.33    0.82    5.48    0.52    0.05    0.06    0.06    0.05    0.06    0.05    0.06    0.07   55.61    5.61    0.23    0.23    0.23    0.21    0.23    0.32    0.39    0.89
   15 194   118   120     3   126.5   121.1     5.3     0.0   48.55  123.97    0.13    2.78    0.00   45.77  162.53    5.84    0.00   51.30     5.2     0.2    0.19    0.19    0.17    0.19    0.28    0.34    0.83    4.54    0.50    0.05    0.06    0.06    0.05    0.06    0.05    0.06    0.07   55.84    5.66    0.23    0.24    0.24    0.22    0.24    0.33    0.40    0.90
   15 195   119   120     3   127.0   122.2     4.8     0.0   49.05  125.03    0.13    2.78    0.00   46.27  162.53    5.84    0.00   52.26     5.2     0.2    0.20    0.20    0.18    0.20    0.29    0.35    0.85    3.78    0.47    0.05    0.05    0.05    0.05    0.05    0.05    0.05    0.07   56.03    5.71    0.24    0.25    0.25    0.23    0.25    0.33    0.41    0.91
   15 196   120   120     3   126.5   122.3     4.2     0.0   49.57  126.03    0.13    2.78    0.00   46.79  163.53    5.84    0.00   52.49     5.2     0.2    0.21    0.21    0.19    0.21    0.30    0.36    0.83    3.00    0.43    0.04    0.05    0.05    0.05    0.05    0.05    0.05    0.06   55.48    5.66    0.25    0.26    0.26    0.24    0.26    0.34    0.41    0.90
   15 197   121   120     3   126.3   122.6     3.7     0.0   50.10  126.94    0.13    2.78    0.00   47.32  164.24    5.84    0.00   53.05     5.2     0.2    0.22    0.22    0.20    0.22    0.30    0.36    0.81    2.47    0.39    0.04    0.05    0.05    0.04    0.05    0.04    0.05    0.06   55.52    5.60    0.25    0.27    0.27    0.24    0.27    0.35    0.41    0.87
   15 198   122   120     3   126.3   122.9     3.4     0.0   50.60  127.76    0.13    2.78    0.00   47.83  164.76    5.84    0.00   53.62     5.2     0.2    0.23    0.23    0.21    0.23    0.31    0.37    0.80    2.08    0.34    0.04    0.05    0.05    0.04    0.05    0.04    0.05    0.06   55.70    5.57    0.26    0.28    0.28    0.25    0.28    0.36    0.42    0.86
   15 199   123   120     3   126.3   123.2     3.1     0.0   51.08  128.53    0.13    2.78    0.00   48.30  165.18    5.84    0.00   54.11     5.3     0.2    0.24    0.24    0.22    0.24    0.33    0.38    0.79    1.76    0.30    0.04    0.04    0.04    0.04    0.04    0.04    0.04    0.06   55.87    5.56    0.27    0.29    0.29    0.26    0.28    0.36    0.42    0.84
   15 200   124   120     3   126.4   123.6     2.8     0.0   51.54  129.26    0.13    2.78    0.00   48.77  165.54    5.84    0.00   54.57     5.3     0.2    0.26    0.26    0.23    0.25    0.34    0.39    0.78    1.48    0.25    0.04    0.04    0.04    0.04    0.04    0.04    0.04    0.06   56.05    5.54    0.28    0.30    0.30    0.27    0.29    0.37    0.43    0.84
   15 201   125   120     3   126.5   124.0     2.6     0.0   52.00  129.94    0.13    2.78    0.00   49.23  165.88    5.84    0.00   54.98     5.3     0.3    0.27    0.27    0.24    0.26    0.35    0.40    0.78    1.26    0.21    0.04    0.04    0.04    0.03    0.03    0.03    0.04    0.05   56.24    5.53    0.29    0.30    0.30    0.27    0.30    0.38    0.44    0.84
   15 202   126   120     3   126.7   124.3     2.4     0.0   52.44  130.57    0.13    2.78    0.00   49.66  166.19    5.84    0.00   55.33     5.3     0.3    0.28    0.28    0.25    0.27    0.35    0.41    0.79    1.08    0.17    0.04    0.03    0.03    0.03    0.03    0.03    0.04    0.05   56.41    5.51    0.30    0.31    0.31    0.28    0.31    0.38    0.44    0.84
   15 203   127   120     3   126.8   124.6     2.2     0.0   52.86  131.14    0.13    2.78    0.00   50.08  166.48    5.84    0.00   55.63     5.3     0.3    0.29    0.29    0.26    0.28    0.36    0.41    0.79    0.93    0.14    0.04    0.03    0.03    0.03    0.03    0.03    0.03    0.05   56.56    5.48    0.31    0.32    0.32    0.29    0.31    0.39    0.45    0.84
   15 204   128   120     3   126.9   124.8     2.1     0.0   53.26  131.67    0.13    2.78    0.00   50.48  166.75    5.84    0.00   55.89     5.3     0.3    0.30    0.30    0.27    0.29    0.37    0.42    0.80    0.81    0.11    0.04    0.03    0.03    0.03    0.03    0.03    0.03    0.04   56.70    5.46    0.32    0.33    0.33    0.29    0.32    0.40    0.46    0.84
   15 205   129   120     3   127.1   125.1     2.0     0.0   53.68  132.19    0.13    2.78    0.00   50.90  167.01    5.84    0.00   56.17     5.3     0.3    0.31    0.31    0.28    0.30    0.38    0.43    0.81    0.74    0.09    0.04    0.03    0.03    0.03    0.03    0.03    0.03    0.04   56.90    5.43    0.33    0.34    0.34    0.30    0.33    0.40    0.46    0.85
   15 206   130   120     3   127.2   125.3     1.9     0.0   54.09  132.67    0.13    2.78    0.00   51.31  167.26    5.84    0.00   56.41     5.3     0.3    0.32    0.32    0.28    0.31    0.39    0.44    0.82    0.68    0.08    0.04    0.03    0.03    0.02    0.02    0.02    0.03    0.04   57.08    5.40    0.34    0.35    0.35    0.31    0.33    0.41    0.47    0.86
   15 207   131   120     3   127.4   125.5     1.8     0.0   54.47  133.11    0.13    2.78    0.00   51.69  167.50    5.84    0.00   56.63     5.3     0.3    0.32    0.32    0.29    0.31    0.39    0.45    0.83    0.63    0.07    0.04    0.03    0.03    0.02    0.02    0.02    0.03    0.03   57.25    5.38    0.34    0.35    0.35    0.31    0.34    0.42    0.47    0.86
   15 208   132   120     3   127.5   125.7     1.8     0.0   54.84  133.51    0.13    2.78    0.00   52.06  167.74    5.84    0.00   56.82     5.3     0.3    0.33    0.33    0.30    0.32    0.40    0.45    0.84    0.61    0.06    0.04    0.03    0.03    0.02    0.02    0.02    0.02    0.03   57.43    5.35    0.35    0.36    0.36    0.32    0.34    0.42    0.48    0.87
   15 209   133   120     3   124.7   122.9     1.8     0.0   55.27  133.86    0.13    2.78    0.00   52.49  170.97    5.84    0.00   52.53     5.3     0.3    0.34    0.34    0.30    0.33    0.40    0.46    0.84    0.57    0.06    0.04    0.03    0.03    0.02    0.02    0.02    0.02    0.03   53.09    5.32    0.36    0.37    0.37    0.32    0.35    0.43    0.48    0.87
   15 210   134   120     3   123.8   122.1     1.8     0.0   55.64  134.21    0.13    2.78    0.00   52.86  172.21    5.84    0.00   51.19     5.2     0.3    0.34    0.34    0.31    0.33    0.41    0.46    0.85    0.57    0.06    0.04    0.03    0.03    0.02    0.02    0.02    0.02    0.03   51.76    5.29    0.37    0.37    0.37    0.33    0.35    0.43    0.49    0.88
   15 211   135   120     3   123.7   122.0     1.7     0.0   55.96  134.53    0.13    2.78    0.00   53.18  172.62    5.84    0.00   51.08     5.2     0.3    0.35    0.35    0.31    0.34    0.41    0.47    0.85    0.57    0.06    0.04    0.03    0.03    0.02    0.02    0.02    0.02    0.03   51.65    5.26    0.37    0.38    0.38    0.33    0.36    0.44    0.49    0.88
   15 212   136   120     3   123.8   122.1     1.7     0.0   56.23  134.82    0.13    2.78    0.00   53.45  172.84    5.84    0.00   51.23     5.2     0.3    0.35    0.35    0.32    0.34    0.42    0.47    0.86    0.56    0.05    0.04    0.03    0.03    0.02    0.02    0.02    0.02    0.03   51.79    5.24    0.38    0.38    0.38    0.34    0.36    0.44    0.49    0.88
   15 213   137   120     3   123.8   122.2     1.7     0.0   56.50  135.11    0.13    2.78    0.00   53.72  173.05    5.84    0.00   51.38     5.2     0.3    0.36    0.36    0.32    0.34    0.42    0.48    0.86    0.54    0.05    0.04    0.03    0.03    0.02    0.02    0.02    0.02    0.03   51.92    5.21    0.38    0.39    0.39    0.34    0.37    0.44    0.50    0.89
   15 214   138   120     3   123.9   122.2     1.7     0.0   56.75  135.39    0.13    2.78    0.00   53.97  173.25    5.84    0.00   51.51     5.1     0.4    0.36    0.36    0.32    0.35    0.43    0.48    0.87    0.52    0.05    0.04    0.03    0.03    0.02    0.02    0.02    0.02    0.03   52.03    5.18    0.39    0.39    0.39    0.35    0.37    0.45    0.50    0.89
   15 215   139   120     3   124.0   122.3     1.6     0.0   57.01  135.66    0.13    2.78    0.00   54.23  173.45    5.84    0.00   51.64     5.1     0.4    0.37    0.37    0.33    0.35    0.43    0.48    0.87    0.49    0.05    0.04    0.03    0.03    0.02    0.02    0.02    0.02    0.03   52.14    5.15    0.39    0.40    0.40    0.35    0.37    0.45    0.51    0.90
   15 216   140   120     3   124.0   122.4     1.6     0.0   57.28  135.95    0.13    2.78    0.00   54.50  173.65    5.84    0.00   51.77     5.1     0.4    0.37    0.37    0.33    0.36    0.43    0.49    0.87    0.47    0.05    0.04    0.03    0.03    0.02    0.02    0.02    0.02    0.03   52.24    5.12    0.40    0.40    0.40    0.36    0.38    0.46    0.51    0.90
   15 217   141   120     3   124.1   122.5     1.6     0.0   57.57  136.25    0.13    2.78    0.00   54.79  173.84    5.84    0.00   51.90     5.0     0.4    0.38    0.38    0.34    0.36    0.44    0.49    0.88    0.43    0.05    0.04    0.03    0.03    0.02    0.02    0.02    0.02    0.03   52.33    5.09    0.41    0.41    0.41    0.36    0.38    0.46    0.52    0.90
   15 218   142   120     3   124.2   122.7     1.6     0.0   57.86  136.56    0.13    2.78    0.00   55.09  174.02    5.84    0.00   52.02     5.0     0.4    0.39    0.39    0.34    0.37    0.44    0.50    0.88    0.40    0.05    0.04    0.03    0.03    0.02    0.02    0.02    0.02    0.03   52.42    5.07    0.41    0.42    0.41    0.37    0.39    0.47    0.52    0.91
   15 219   143   120     3   124.4   122.8     1.6     0.0   58.19  136.90    0.13    2.78    0.00   55.41  174.20    5.84    0.00   52.15     5.0     0.4    0.39    0.39    0.35    0.37    0.45    0.50    0.89    0.36    0.05    0.04    0.03    0.03    0.02    0.02    0.02    0.02    0.03   52.51    5.04    0.42    0.42    0.42    0.37    0.40    0.47    0.53    0.91
   15 220   144   120     3   124.5   123.0     1.6     0.0   58.53  137.24    0.13    2.78    0.00   55.75  174.38    5.84    0.00   52.26     5.0     0.4    0.40    0.40    0.36    0.38    0.46    0.51    0.89    0.33    0.05    0.04    0.03    0.03    0.02    0.02    0.02    0.02    0.03   52.59    5.02    0.43    0.43    0.43    0.38    0.40    0.48    0.53    0.92
   15 221   145   120     3   124.8   123.2     1.6     0.0   58.93  137.63    0.13    2.78    0.00   56.16  174.55    5.84    0.00   52.41     5.0     0.4    0.41    0.41    0.36    0.39    0.46    0.52    0.90    0.35    0.05    0.04    0.03    0.03    0.02    0.02    0.02    0.02    0.03   52.76    5.00    0.44    0.44    0.44    0.39    0.41    0.48    0.54    0.93
   15 222   146   120     3   125.0   123.4     1.6     0.0   59.34  138.03    0.13    2.78    0.00   56.57  174.72    5.84    0.00   52.56     4.9     0.4    0.42    0.42    0.37    0.39    0.47    0.52    0.91    0.36    0.05    0.04    0.03    0.03    0.02    0.02    0.02    0.02    0.03   52.91    4.97    0.45    0.45    0.44    0.39    0.42    0.49    0.54    0.93
   15 223   147   120     3   125.3   123.7     1.6     0.0   59.75  138.43    0.13    2.78    0.00   56.97  174.88    5.84    0.00   52.70     4.9     0.4    0.43    0.43    0.38    0.40    0.48    0.53    0.91    0.35    0.05    0.04    0.03    0.03    0.02    0.02    0.02    0.02    0.03   53.05    4.95    0.46    0.46    0.45    0.40    0.42    0.50    0.55    0.94
   15 224   148   120     3   125.7   124.1     1.6     0.0   60.15  138.84    0.13    2.78    0.00   57.37  174.88    5.84    0.00   52.84     4.9     0.4    0.44    0.43    0.38    0.41    0.48    0.54    0.92    0.33    0.05    0.04    0.03    0.03    0.02    0.02    0.02    0.02    0.03   53.17    4.93    0.47    0.46    0.46    0.41    0.43    0.50    0.56    0.95
   15 225   149   120     3   126.0   124.5     1.6     0.0   60.54  139.24    0.13    2.78    0.00   57.76  174.88    5.84    0.00   52.97     4.9     0.4    0.44    0.44    0.39    0.41    0.49    0.54    0.93    0.30    0.04    0.04    0.03    0.03    0.02    0.02    0.02    0.02    0.03   53.28    4.91    0.48    0.47    0.47    0.41    0.44    0.51    0.56    0.95
   15 226   150   120     3   126.4   124.9     1.5     0.0   60.91  139.63    0.13    2.78    0.00   58.14  174.88    5.84    0.00   53.09     4.8     0.5    0.45    0.45    0.40    0.42    0.50    0.55    0.94    0.28    0.04    0.04    0.03    0.03    0.02    0.02    0.02    0.02    0.03   53.37    4.89    0.49    0.48    0.48    0.42    0.44    0.52    0.57    0.96
   15 227   151   120     3   127.0   125.3     1.7     0.0   61.46  140.05    0.13    2.78    0.00   58.68  174.88    5.84    0.00   53.26     4.8     0.5    0.46    0.46    0.40    0.43    0.50    0.55    0.94    0.47    0.05    0.04    0.03    0.03    0.02    0.02    0.02    0.02    0.03   53.72    4.86    0.50    0.49    0.49    0.43    0.45    0.52    0.58    0.97
   15 228   152   120     3   127.5   125.7     1.8     0.0   61.99  140.49    0.13    2.78    0.00   59.22  174.88    5.84    0.00   45.66     8.6     0.5    0.47    0.47    0.41    0.43    0.51    0.56    0.95    0.60    0.05    0.04    0.03    0.03    0.02    0.02    0.02    0.02    0.03   46.26    8.69    0.51    0.50    0.49    0.43    0.46    0.53    0.58    0.98
   15 229   153   120     3   128.1   126.2     1.9     0.0   62.61  140.93    0.13    2.78    0.00   59.83  174.88    5.84    0.00   38.50    12.3     0.5    0.48    0.47    0.42    0.44    0.51    0.57    0.96    0.86    0.05    0.04    0.03    0.03    0.02    0.02    0.02    0.02    0.03   39.36   12.31    0.51    0.50    0.50    0.44    0.46    0.54    0.59    0.98
   15 230   154   120     3   128.7   126.6     2.1     0.0   63.23  141.34    0.13    2.78    0.00   60.45  174.88    5.84    0.00   37.24    13.0     0.5    0.48    0.48    0.42    0.45    0.52    0.58    0.97    1.04    0.12    0.04    0.03    0.03    0.02    0.02    0.02    0.02    0.03   38.28   13.13    0.52    0.51    0.50    0.44    0.47    0.54    0.60    1.00
   15 231   155   120     3   129.3   127.0     2.3     0.0   63.85  141.80    0.13    2.78    0.00   61.07  174.88    5.84    0.00   41.87    10.9     0.5    0.48    0.47    0.43    0.46    0.53    0.60    1.01    1.16    0.19    0.04    0.03    0.03    0.02    0.02    0.02    0.02    0.03   43.03   11.13    0.53    0.51    0.50    0.45    0.48    0.55    0.62    1.03
   15 232   156   120     3   129.9   127.5     2.4     0.0   64.38  142.25    0.13    2.78    0.00   61.60  174.88    5.84    0.00   44.46     9.9     0.5    0.48    0.47    0.43    0.47    0.54    0.61    1.03    1.21    0.23    0.04    0.03    0.03    0.02    0.02    0.02    0.02    0.02   45.68   10.10    0.54    0.51    0.49    0.45    0.49    0.56    0.63    1.05
   15 233   157   120     3   130.4   127.9     2.4     0.0   64.86  142.69    0.13    2.78    0.00   62.08  174.88    5.84    0.00   44.82     9.8     0.5    0.48    0.47    0.43    0.47    0.54    0.61    1.03    1.23    0.26    0.04    0.03    0.03    0.02    0.02    0.02    0.02    0.02   46.05   10.10    0.54    0.51    0.50    0.46    0.49    0.56    0.63    1.06
   15 234   158   120     3   130.8   128.4     2.4     0.0   65.31  143.13    0.13    2.78    0.00   62.53  174.88    5.84    0.00   45.17     9.8     0.5    0.49    0.48    0.44    0.47    0.55    0.62    1.04    1.22    0.28    0.04    0.03    0.03    0.02    0.02    0.02    0.02    0.02   46.39   10.11    0.55    0.52    0.50    0.46    0.50    0.57    0.64    1.06
   15 235   159   120     3   131.2   128.8     2.4     0.0   65.76  143.58    0.13    2.78    0.00   62.98  174.88    5.84    0.00   45.53     9.8     0.5    0.49    0.48    0.44    0.48    0.55    0.62    1.04    1.19    0.30    0.04    0.03    0.03    0.02    0.02    0.02    0.02    0.02   46.71   10.11    0.55    0.52    0.51    0.47    0.50    0.57    0.64    1.07
   15 236   160   120     3   131.7   129.3     2.5     0.0   66.26  144.06    0.13    2.78    0.00   63.48  174.88    5.84    0.00   18.58    19.5     8.1    0.50    0.49    0.45    0.48    0.56    0.62    1.05    1.21    0.31    0.04    0.03    0.03    0.02    0.02    0.02    0.02    0.02   19.78   19.76    8.10    0.53    0.51    0.47    0.50    0.58    0.65    1.07
   15 237   161   120     3   132.6   129.7     2.8     0.0   67.07  144.49    0.13    2.78    0.00   64.29  174.88    5.84    0.00   20.03    18.1     9.8    0.49    0.48    0.45    0.49    0.57    0.64    1.08    1.31    0.55    0.05    0.03    0.03    0.02    0.02    0.02    0.02    0.02   21.34   18.62    9.87    0.52    0.51    0.47    0.51    0.59    0.66    1.10

*DSSAT Cropping System Model Ver. 4.8.5.000 -release  MAR 01, 2026 09:34:20

*RUN   2        : 2                         WHAPS048 TUDU1501    2
 MODEL          : WHAPS048 - Wheat
 EXPERIMENT     : TUDU1501 WH
 DATA PATH      :
 TREATMENT  2   : 2                         WHAPS048
  
!                                                                                                                                      NO3 (ppm) at soil dep. (cm):                                                    NH4 (ppm) at soil dep. (cm):                                                    Total Inorganic N @dep(ppm):
!                                                                                                                                       0-5    5-15   15-20   20-30   30-40   40-50   50-60   60-70   70-90  90-210     0-5    5-15   15-20   20-30   30-40   40-50   50-60   60-70   70-90  90-210     0-5    5-15   15-20   20-30   30-40   40-50   50-60   60-70   70-90  90-210
@YEAR DOY   DAS  NAPC  NI#M    NIAD    NITD    NHTD   NURTD    NMNC    NITC    NDNC    NIMC    AMLC   NNMNC    NUCM    NLCC    TDNC    NI1D    NI2D    NI3D    NI4D    NI5D    NI6D    NI7D    NI8D    NI9D    NI10    NH1D    NH2D    NH3D    NH4D    NH5D    NH6D    NH7D    NH8D    NH9D    NH10    NT1D    NT2D    NT3D    NT4D    NT5D    NT6D    NT7D    NT8D    NT9D    NT10    
   15 076     0     0     0   129.8   116.8    13.0     0.0    0.00    0.00    0.00    0.00    0.00    0.00    0.00    0.00    0.00    3.87     3.9     3.9    3.87    3.87    3.87    3.87    3.87    3.87    3.87    0.43    0.43    0.43    0.43    0.43    0.43    0.43    0.43    0.43    0.43    4.30    4.30    4.30    4.30    4.30    4.30    4.30    4.30    4.30    4.30
   15 077     1     0     0   129.7   118.4    11.2     0.0    0.15    1.64    0.00    0.24    0.00   -0.09    0.00    0.00    0.00    3.92     3.9     3.9    3.92    3.92    3.92    3.92    3.92    3.92    3.92    0.25    0.26    0.39    0.38    0.38    0.38    0.38    0.38    0.38    0.38    4.17    4.18    4.31    4.31    4.31    4.31    4.31    4.31    4.30    4.30
   15 078     2     0     0   129.6   119.8     9.8     0.0    0.28    3.01    0.00    0.44    0.00   -0.16    0.00    0.00    0.00    4.01     3.9     4.0    3.96    3.96    3.97    3.97    3.97    3.97    3.97    0.12    0.13    0.35    0.35    0.35    0.34    0.34    0.34    0.34    0.34    4.13    4.07    4.31    4.31    4.31    4.31    4.31    4.31    4.31    4.31
   15 079     3     0     0   129.6   120.9     8.6     0.0    0.39    4.15    0.00    0.58    0.00   -0.19    0.00    0.00    0.00    4.09     3.9     4.0    4.00    4.00    4.00    4.00    4.01    4.01    4.01    0.03    0.05    0.32    0.31    0.31    0.31    0.31    0.31    0.30    0.30    4.12    3.97    4.31    4.31    4.31    4.31    4.31    4.31    4.31    4.31
   15 080     4     0     0   129.5   121.8     7.7     0.0    0.48    5.08    0.00    0.67    0.00   -0.20    0.00    0.00    0.00    4.08     3.9     4.0    4.02    4.03    4.03    4.03    4.04    4.04    4.04    0.00    0.00    0.29    0.29    0.28    0.28    0.28    0.28    0.27    0.27    4.08    3.93    4.30    4.31    4.32    4.31    4.32    4.32    4.31    4.31
   15 081     5     0     0   129.5   122.5     7.0     0.0    0.54    5.86    0.00    0.74    0.00   -0.20    0.00    0.00    0.00    4.09     3.9     4.0    4.05    4.05    4.06    4.06    4.06    4.07    4.07    0.00    0.00    0.27    0.26    0.26    0.26    0.26    0.25    0.25    0.25    4.09    3.89    4.30    4.31    4.32    4.31    4.32    4.32    4.31    4.32
   15 082     6     0     0   129.5   123.2     6.4     0.0    0.56    6.52    0.00    0.75    0.00   -0.19    0.00    0.00    0.00    4.13     3.9     4.0    4.06    4.07    4.08    4.08    4.09    4.09    4.09    0.00    0.00    0.25    0.24    0.24    0.24    0.23    0.23    0.23    0.22    4.13    3.87    4.29    4.31    4.31    4.31    4.32    4.32    4.32    4.32
   15 083     7     0     0   129.6   123.8     5.8     0.0    0.57    7.09    0.00    0.75    0.00   -0.18    0.00    0.00    0.00    4.20     3.9     4.1    4.08    4.09    4.10    4.10    4.10    4.11    4.11    0.00    0.00    0.23    0.22    0.22    0.22    0.22    0.21    0.21    0.20    4.20    3.85    4.29    4.30    4.31    4.31    4.32    4.32    4.31    4.32
   15 084     8     0     0   129.6   124.3     5.3     0.0    0.58    7.61    0.00    0.75    0.00   -0.17    0.00    0.00    0.00    4.27     3.8     4.1    4.09    4.11    4.11    4.12    4.12    4.12    4.13    0.00    0.00    0.21    0.21    0.20    0.20    0.20    0.20    0.19    0.19    4.27    3.83    4.28    4.30    4.31    4.31    4.31    4.32    4.31    4.32
   15 085     9     0     0   129.6   124.7     4.8     0.0    0.60    8.10    0.00    0.76    0.00   -0.16    0.00    0.00    0.00    4.33     3.8     4.1    4.11    4.12    4.13    4.13    4.14    4.14    4.15    0.00    0.00    0.20    0.19    0.19    0.18    0.18    0.18    0.17    0.17    4.33    3.81    4.27    4.30    4.31    4.31    4.31    4.32    4.31    4.32
   15 086    10     0     0   129.6   125.2     4.4     0.0    0.63    8.55    0.00    0.78    0.00   -0.14    0.00    0.00    0.00    4.37     3.8     4.1    4.12    4.14    4.14    4.15    4.15    4.16    4.16    0.00    0.00    0.18    0.17    0.17    0.17    0.17    0.16    0.16    0.15    4.37    3.78    4.27    4.29    4.31    4.31    4.31    4.32    4.31    4.32
   15 087    11     0     0   129.6   125.6     4.0     0.0    0.67    8.98    0.00    0.81    0.00   -0.14    0.00    0.00    0.00    4.42     3.7     4.1    4.13    4.15    4.16    4.16    4.17    4.17    4.18    0.00    0.00    0.17    0.16    0.16    0.16    0.15    0.15    0.14    0.14    4.42    3.75    4.26    4.29    4.31    4.31    4.32    4.32    4.32    4.32
   15 088    12     0     0   129.6   125.9     3.7     0.0    0.73    9.38    0.00    0.86    0.00   -0.13    0.00    0.00    0.00    4.46     3.7     4.1    4.14    4.16    4.17    4.18    4.18    4.18    4.19    0.00    0.00    0.16    0.15    0.15    0.14    0.14    0.14    0.13    0.13    4.46    3.70    4.26    4.29    4.31    4.31    4.32    4.32    4.32    4.32
   15 089    13     0     0   129.4   126.1     3.4     0.0    0.81    9.77    0.00    0.93    0.00   -0.12    0.18    0.00    0.00    3.39     4.1     4.1    4.15    4.18    4.18    4.19    4.20    4.20    4.20    0.00    0.00    0.14    0.14    0.14    0.13    0.13    0.13    0.12    0.12    3.39    4.05    4.25    4.29    4.31    4.31    4.32    4.32    4.32    4.32
   15 090    14     0     0   129.3   126.2     3.1     0.0    0.87   10.11    0.00    1.00    0.00   -0.13    0.32    0.00    0.00    2.76     4.1     4.3    4.16    4.19    4.19    4.20    4.21    4.21    4.22    0.00    0.00    0.13    0.13    0.13    0.12    0.12    0.12    0.11    0.11    2.76    4.10    4.48    4.29    4.31    4.31    4.32    4.32    4.32    4.32
   15 091    15     0     0   129.2   126.3     2.8     0.0    0.94   10.43    0.00    1.08    0.00   -0.14    0.43    0.00    0.00    2.57     4.0     4.7    4.24    4.18    4.19    4.20    4.21    4.21    4.22    0.00    0.00    0.13    0.12    0.12    0.11    0.11    0.11    0.10    0.10    2.57    3.96    4.81    4.36    4.30    4.30    4.31    4.32    4.31    4.32
   15 092    16     0     0   129.0   126.4     2.6     0.0    0.99   10.71    0.00    1.13    0.00   -0.14    0.61    0.00    0.00    2.40     3.7     4.9    4.48    4.18    4.18    4.20    4.21    4.21    4.22    0.00    0.00    0.12    0.11    0.11    0.10    0.10    0.10    0.09    0.09    2.40    3.73    4.98    4.59    4.28    4.28    4.30    4.31    4.30    4.31
   15 093    17     0     0   128.9   126.5     2.4     0.0    1.03   10.95    0.00    1.16    0.00   -0.14    0.65    0.00    0.00    2.35     3.4     4.5    4.56    4.55    4.29    4.20    4.22    4.21    4.23    0.00    0.00    0.11    0.10    0.10    0.10    0.09    0.09    0.09    0.08    2.35    3.44    4.57    4.66    4.65    4.38    4.29    4.31    4.30    4.31
   15 094    18     0     0   128.9   126.7     2.2     0.0    1.04   11.17    0.00    1.16    0.00   -0.13    0.69    0.00    0.00    2.63     3.4     4.6    4.63    4.59    4.26    4.19    4.21    4.20    4.22    0.00    0.00    0.10    0.09    0.09    0.09    0.09    0.08    0.08    0.08    2.63    3.40    4.67    4.72    4.68    4.35    4.27    4.30    4.28    4.30
   15 095    19     0     0   128.8   126.8     2.0     0.0    1.04   11.35    0.00    1.16    0.00   -0.12    0.78    0.00    0.00    2.57     3.2     4.3    4.57    4.58    4.60    4.28    4.21    4.20    4.22    0.00    0.00    0.10    0.09    0.09    0.08    0.08    0.08    0.07    0.07    2.57    3.23    4.37    4.66    4.67    4.68    4.36    4.29    4.28    4.29
   15 096    20     0     0   128.8   126.9     1.8     0.0    1.04   11.51    0.00    1.16    0.00   -0.12    0.84    0.00    0.00    2.85     3.2     4.3    4.57    4.61    4.59    4.27    4.21    4.20    4.22    0.00    0.00    0.09    0.08    0.08    0.08    0.07    0.07    0.07    0.06    2.85    3.21    4.37    4.65    4.69    4.66    4.34    4.28    4.26    4.28
   15 097    21     0     0   128.7   127.0     1.7     0.0    1.04   11.66    0.00    1.16    0.00   -0.12    0.88    0.00    0.00    3.09     3.2     4.2    4.55    4.59    4.61    4.28    4.21    4.20    4.22    0.00    0.00    0.09    0.08    0.08    0.07    0.07    0.07    0.06    0.06    3.09    3.20    4.32    4.63    4.67    4.68    4.35    4.28    4.26    4.28
   15 098    22    40     1   168.7   137.1    31.6     0.0    1.04   11.79    0.00    1.16    0.00   -0.12    0.91    0.00    0.00   19.23     3.2     4.3    4.52    4.56    4.58    4.26    4.20    4.18    4.21   46.51    0.00    0.08    0.07    0.07    0.07    0.06    0.06    0.06    0.05   65.74    3.20    4.36    4.59    4.63    4.65    4.33    4.26    4.24    4.26
   15 099    23    40     1   168.6   139.1    29.5     0.0    1.04   13.83    0.00    1.16    0.00   -0.12    1.00    0.00    0.00   22.18     3.2     4.3    4.52    4.57    4.58    4.27    4.21    4.19    4.21   43.47    0.00    0.08    0.07    0.07    0.06    0.06    0.06    0.05    0.05   65.65    3.18    4.35    4.58    4.63    4.64    4.33    4.26    4.24    4.26
   15 100    24    40     1   168.2   141.0    27.2     0.0    1.05   15.94    0.00    1.16    0.00   -0.12    1.42    0.00    0.00   25.02     3.1     4.3    4.52    4.57    4.59    4.27    4.21    4.19    4.22   40.07    0.00    0.07    0.06    0.06    0.06    0.05    0.05    0.05    0.05   65.09    3.14    4.35    4.58    4.63    4.64    4.33    4.26    4.24    4.26
   15 101    25    40     1   167.6   142.9    24.7     0.0    1.09   18.19    0.00    1.22    0.00   -0.12    2.00    0.00    0.00   27.97     3.1     4.3    4.52    4.57    4.59    4.28    4.22    4.20    4.22   36.33    0.00    0.07    0.06    0.06    0.05    0.05    0.05    0.04    0.04   64.30    3.05    4.34    4.58    4.63    4.64    4.33    4.26    4.24    4.26
   15 102    26    40     1   166.8   144.8    22.0     0.0    1.19   20.58    0.00    1.32    0.00   -0.13    2.71    0.00    0.00   31.06     2.9     4.3    4.52    4.58    4.60    4.28    4.22    4.20    4.23   32.32    0.00    0.06    0.06    0.06    0.05    0.05    0.05    0.04    0.04   63.39    2.89    4.34    4.58    4.63    4.65    4.33    4.27    4.24    4.27
   15 103    27    40     1   166.1   146.7    19.4     0.0    1.34   23.06    0.00    1.47    0.00   -0.14    3.45    0.00    0.00   34.31     2.6     4.3    4.53    4.58    4.60    4.29    4.23    4.20    4.23   28.22    0.00    0.07    0.06    0.06    0.05    0.05    0.05    0.04    0.04   62.53    2.64    4.33    4.58    4.64    4.65    4.34    4.27    4.25    4.27
   15 104    28    40     1   165.3   148.2    17.1     0.0    1.51   25.34    0.00    1.63    0.00   -0.12    4.28    0.00    0.00   37.26     2.3     4.2    4.53    4.59    4.61    4.29    4.23    4.21    4.24   24.55    0.00    0.07    0.06    0.06    0.05    0.05    0.05    0.04    0.04   61.81    2.28    4.29    4.59    4.65    4.66    4.34    4.28    4.25    4.28
   15 105    29    40     1   164.8   149.6    15.3     0.0    1.70   27.24    0.00    1.77    0.00   -0.07    4.76    0.00    0.00   39.89     2.0     4.1    4.52    4.59    4.61    4.30    4.24    4.22    4.24   21.72    0.00    0.07    0.06    0.06    0.05    0.05    0.05    0.04    0.04   61.61    1.96    4.22    4.58    4.65    4.66    4.35    4.29    4.26    4.28
   15 106    30    40     1   164.5   150.7    13.8     0.0    1.91   28.89    0.00    1.90    0.00    0.01    5.15    0.00    0.00   42.20     1.7     4.0    4.49    4.60    4.62    4.30    4.24    4.22    4.25   19.39    0.00    0.07    0.06    0.06    0.05    0.05    0.05    0.04    0.04   61.59    1.69    4.09    4.55    4.66    4.67    4.36    4.30    4.27    4.29
   15 107    31    40     1   164.2   151.7    12.5     0.0    2.14   30.40    0.00    2.02    0.00    0.13    5.61    0.00    0.00   13.67    15.1     5.1    5.02    4.73    4.69    4.31    4.25    4.23    4.25   17.31    0.00    0.07    0.06    0.07    0.06    0.06    0.05    0.05    0.04   30.97   15.07    5.13    5.08    4.80    4.75    4.37    4.31    4.27    4.30
   15 108    32    40     1   160.2   150.0    10.2     0.0    2.37   31.34    0.00    2.22    0.00    0.15    9.59    0.00    0.00   12.66    12.6     6.4    4.96    4.75    4.70    4.60    4.66    4.36    4.25   13.72    0.00    0.08    0.07    0.07    0.06    0.06    0.06    0.05    0.05   26.38   12.60    6.46    5.03    4.82    4.76    4.66    4.72    4.41    4.30
   15 109    33    40     1   158.4   149.9     8.5     0.0    2.56   32.43    0.00    2.39    0.00    0.17   11.37    0.00    0.00   14.34    11.3     6.6    5.00    4.75    4.70    4.62    4.67    4.50    4.25   11.07    0.00    0.08    0.07    0.07    0.06    0.06    0.06    0.05    0.05   25.41   11.30    6.64    5.07    4.82    4.76    4.68    4.73    4.54    4.29
   15 110    34    40     1   157.2   150.0     7.2     0.0    2.73   33.37    0.00    2.51    0.00    0.22   12.61    0.00    0.00   17.10    10.4     6.3    4.96    4.74    4.69    4.61    4.66    4.48    4.24    9.09    0.00    0.08    0.07    0.07    0.06    0.06    0.06    0.05    0.05   26.19   10.36    6.37    5.03    4.81    4.76    4.66    4.72    4.53    4.29
   15 111    35    40     1   155.5   149.4     6.1     0.0    2.86   34.09    0.00    2.59    0.00    0.27   14.44    0.00    0.00   19.00     9.4     6.0    4.87    4.70    4.67    4.59    4.65    4.47    4.23    7.35    0.00    0.08    0.07    0.07    0.06    0.06    0.06    0.05    0.04   26.35    9.44    6.07    4.94    4.78    4.72    4.65    4.71    4.51    4.28
   15 112    36    40     1   153.0   147.9     5.1     0.0    2.96   34.64    0.00    2.63    0.00    0.34   16.98    0.00    0.00   18.15     8.8     5.8    4.78    4.71    4.67    4.59    4.66    4.47    4.24    5.84    0.00    0.08    0.07    0.07    0.06    0.06    0.05    0.04    0.04   24.00    8.83    5.87    4.85    4.78    4.73    4.65    4.71    4.52    4.28
   15 113    37    40     1   150.2   145.9     4.3     0.0    3.07   35.11    0.00    2.66    0.00    0.41   19.86    0.00    0.00   17.46     7.9     5.4    4.61    4.70    4.67    4.60    4.66    4.48    4.24    4.72    0.00    0.07    0.06    0.07    0.06    0.05    0.05    0.04    0.04   22.19    7.91    5.49    4.67    4.76    4.73    4.65    4.72    4.52    4.28
   15 114    38    40     1   148.9   145.0     3.9     0.0    3.18   35.53    0.00    2.68    0.00    0.50   21.19    0.00    0.00   17.68     7.4     5.2    4.48    4.68    4.68    4.61    4.67    4.48    4.24    4.12    0.00    0.07    0.06    0.07    0.06    0.05    0.05    0.04    0.04   21.80    7.35    5.25    4.54    4.75    4.74    4.66    4.72    4.52    4.29
   15 115    39    40     1   146.8   143.3     3.5     0.0    3.30   35.92    0.00    2.70    0.00    0.60   23.41    0.00    0.00   17.86     6.4     4.7    4.20    4.64    4.68    4.61    4.67    4.48    4.25    3.61    0.00    0.06    0.06    0.07    0.06    0.05    0.05    0.04    0.04   21.47    6.40    4.76    4.26    4.71    4.74    4.66    4.72    4.53    4.29
   15 116    40    40     1   144.2   141.1     3.1     0.0    3.45   36.29    0.00    2.72    0.00    0.72   26.13    0.00    0.00   17.32     5.6     4.2    3.90    4.57    4.69    4.62    4.68    4.49    4.25    2.94    0.00    0.06    0.06    0.07    0.06    0.05    0.05    0.04    0.04   20.26    5.57    4.28    3.96    4.63    4.75    4.67    4.73    4.53    4.29
   15 117    41    40     1   140.8   138.3     2.6     0.0    3.62   36.62    0.00    2.74    0.00    0.88   29.65    0.00    0.00   13.95     5.7     3.7    3.57    4.45    4.70    4.62    4.68    4.49    4.26    2.13    0.00    0.06    0.05    0.07    0.06    0.05    0.05    0.04    0.04   16.09    5.66    3.79    3.62    4.52    4.75    4.68    4.74    4.54    4.30
   15 118    42    40     1   136.4   134.5     1.9     0.0    3.81   36.87    0.00    2.77    0.00    1.04   34.26    0.00    0.00    7.64     6.2     3.5    3.42    4.38    4.70    4.63    4.69    4.50    4.26    0.99    0.00    0.06    0.06    0.07    0.06    0.06    0.05    0.04    0.04    8.62    6.15    3.58    3.48    4.45    4.76    4.68    4.74    4.54    4.30
   15 119    43    40     1   134.1   132.4     1.7     0.0    4.02   37.08    0.00    2.78    0.00    1.24   36.76    0.00    0.00    6.07     5.6     3.3    3.28    4.27    4.70    4.63    4.69    4.50    4.27    0.68    0.00    0.06    0.06    0.07    0.06    0.06    0.06    0.04    0.04    6.75    5.62    3.38    3.34    4.34    4.76    4.69    4.75    4.54    4.31
   15 120    44    40     1   132.9   131.3     1.6     0.0    4.22   37.28    0.00    2.78    0.00    1.44   38.15    0.00    0.00    5.55     5.3     3.2    3.23    4.22    4.69    4.62    4.69    4.49    4.26    0.49    0.00    0.07    0.06    0.07    0.06    0.06    0.06    0.05    0.04    6.03    5.27    3.29    3.30    4.29    4.75    4.68    4.74    4.54    4.31
[...]
   15 185   109     0     0    84.6    81.8     2.8     0.0   37.91   35.88    0.09    2.54    0.00   35.38   69.79   10.54    0.00    0.15     0.6     0.1    0.07    0.07    0.08    0.10    0.19    0.39    1.32    0.11    0.66    0.09    0.08    0.08    0.07    0.07    0.07    0.06    0.06    0.26    1.25    0.17    0.15    0.15    0.15    0.17    0.27    0.45    1.38
   15 186   110     0     0    84.6    81.7     2.8     0.0   38.82   36.61    0.09    2.54    0.00   36.29   70.71   10.54    0.00    0.18     0.7     0.1    0.08    0.08    0.09    0.11    0.19    0.37    1.24    0.12    0.65    0.09    0.08    0.08    0.08    0.08    0.08    0.06    0.06    0.30    1.37    0.19    0.16    0.16    0.16    0.19    0.27    0.44    1.31
   15 187   111     0     0    84.6    81.8     2.8     0.0   39.74   37.39    0.09    2.54    0.00   37.20   71.62   10.54    0.00    0.21     0.9     0.1    0.10    0.10    0.10    0.12    0.20    0.36    1.18    0.12    0.62    0.09    0.08    0.08    0.08    0.08    0.08    0.06    0.06    0.33    1.48    0.20    0.18    0.18    0.18    0.20    0.28    0.42    1.24
   15 188   112     0     0    85.3    82.4     2.9     0.0   40.64   38.23    0.09    2.54    0.00   38.10   71.81   10.54    0.00    0.25     1.1     0.1    0.12    0.12    0.12    0.14    0.22    0.37    1.18    0.13    0.60    0.09    0.09    0.09    0.08    0.08    0.08    0.07    0.07    0.38    1.65    0.23    0.21    0.21    0.20    0.22    0.30    0.44    1.24
   15 189   113     0     0    85.9    83.1     2.9     0.0   41.57   39.11    0.09    2.54    0.00   39.04   72.12   10.54    0.00    0.26     1.3     0.2    0.15    0.15    0.14    0.16    0.24    0.38    1.17    0.16    0.57    0.09    0.08    0.09    0.08    0.08    0.08    0.07    0.07    0.41    1.83    0.26    0.23    0.23    0.23    0.25    0.32    0.45    1.24
   15 190   114     0     0    86.9    83.9     3.0     0.0   42.52   39.95    0.09    2.54    0.00   39.98   72.13   10.54    0.00    0.31     1.4     0.2    0.17    0.17    0.17    0.19    0.26    0.40    1.19    0.20    0.61    0.09    0.09    0.09    0.09    0.09    0.09    0.07    0.07    0.52    2.04    0.29    0.26    0.26    0.26    0.28    0.35    0.48    1.26
   15 191   115     0     0    87.7    84.6     3.1     0.0   43.38   40.70    0.09    2.54    0.00   40.84   72.18   10.54    0.00    0.56     1.5     0.2    0.20    0.19    0.19    0.21    0.29    0.43    1.23    0.25    0.64    0.09    0.09    0.09    0.09    0.09    0.09    0.07    0.07    0.82    2.15    0.31    0.28    0.28    0.28    0.30    0.38    0.50    1.30
   15 192   116     0     0    88.0    84.9     3.1     0.0   44.13   41.38    0.09    2.54    0.00   41.59   72.64   10.54    0.00    0.87     1.5     0.2    0.21    0.21    0.21    0.23    0.31    0.45    1.26    0.29    0.64    0.09    0.08    0.09    0.09    0.09    0.09    0.07    0.07    1.17    2.10    0.32    0.29    0.30    0.29    0.32    0.40    0.52    1.33
   15 193   117     0     0    87.4    84.5     3.0     0.0   44.82   41.99    0.09    2.54    0.00   42.29   73.84   10.54    0.00    0.66     1.5     0.2    0.22    0.21    0.21    0.23    0.30    0.43    1.20    0.29    0.61    0.09    0.08    0.08    0.08    0.08    0.09    0.07    0.07    0.95    2.12    0.33    0.30    0.30    0.29    0.32    0.39    0.50    1.27
   15 194   118     0     0    87.1    84.2     2.9     0.0   45.43   42.56    0.09    2.54    0.00   42.90   74.83   10.54    0.00    0.64     1.6     0.3    0.22    0.22    0.21    0.23    0.30    0.42    1.15    0.30    0.58    0.08    0.08    0.08    0.08    0.08    0.08    0.07    0.07    0.94    2.13    0.33    0.30    0.30    0.29    0.31    0.38    0.49    1.21
   15 195   119     0     0    86.8    83.9     2.9     0.0   46.04   43.12    0.09    2.54    0.00   43.50   75.74   10.54    0.00    0.63     1.6     0.3    0.23    0.23    0.21    0.23    0.30    0.41    1.10    0.32    0.55    0.08    0.07    0.08    0.08    0.08    0.08    0.07    0.06    0.95    2.16    0.34    0.31    0.30    0.29    0.31    0.38    0.48    1.17
   15 196   120     0     0    86.6    83.8     2.8     0.0   46.69   43.73    0.09    2.54    0.00   44.15   76.59   10.54    0.00    0.67     1.7     0.3    0.24    0.24    0.22    0.24    0.30    0.40    1.06    0.34    0.52    0.08    0.07    0.07    0.07    0.08    0.08    0.07    0.06    1.01    2.20    0.35    0.31    0.31    0.29    0.31    0.38    0.47    1.12
   15 197   121     0     0    86.5    83.7     2.8     0.0   47.37   44.37    0.09    2.54    0.00   44.84   77.36   10.54    0.00    0.75     1.7     0.3    0.25    0.24    0.22    0.24    0.30    0.39    1.02    0.35    0.49    0.07    0.07    0.07    0.07    0.08    0.08    0.07    0.06    1.11    2.24    0.36    0.32    0.32    0.30    0.32    0.38    0.46    1.08
   15 198   122     0     0    86.4    83.7     2.7     0.0   48.06   45.04    0.09    2.54    0.00   45.52   78.07   10.54    0.00    0.86     1.8     0.3    0.26    0.26    0.23    0.25    0.30    0.39    0.98    0.36    0.46    0.07    0.07    0.07    0.07    0.07    0.08    0.07    0.06    1.22    2.29    0.37    0.33    0.33    0.30    0.32    0.38    0.45    1.05
   15 199   123     0     0    86.5    83.8     2.7     0.0   48.74   45.73    0.09    2.54    0.00   46.21   78.73   10.54    0.00    0.97     1.9     0.3    0.28    0.27    0.24    0.25    0.31    0.38    0.95    0.36    0.43    0.06    0.06    0.07    0.07    0.07    0.08    0.06    0.06    1.33    2.34    0.38    0.34    0.34    0.31    0.33    0.38    0.45    1.02
   15 200   124     0     0    86.6    83.9     2.6     0.0   49.43   46.43    0.09    2.54    0.00   46.89   79.33   10.54    0.00    1.08     2.0     0.3    0.29    0.28    0.25    0.26    0.31    0.38    0.93    0.36    0.39    0.06    0.06    0.06    0.07    0.07    0.08    0.06    0.07    1.45    2.40    0.40    0.35    0.35    0.32    0.33    0.39    0.45    0.99
   15 201   125     0     0    86.7    84.1     2.6     0.0   50.11   47.13    0.09    2.54    0.00   47.58   79.90   10.54    0.00    1.20     2.1     0.4    0.31    0.30    0.26    0.27    0.32    0.38    0.90    0.37    0.35    0.06    0.06    0.06    0.07    0.07    0.08    0.06    0.07    1.57    2.45    0.41    0.37    0.36    0.33    0.34    0.40    0.45    0.97
   15 202   126     0     0    86.8    84.3     2.5     0.0   50.78   47.82    0.09    2.54    0.00   48.25   80.45   10.54    0.00    1.32     2.2     0.4    0.32    0.31    0.27    0.28    0.33    0.38    0.88    0.36    0.32    0.05    0.05    0.06    0.07    0.07    0.08    0.06    0.07    1.69    2.49    0.42    0.38    0.37    0.34    0.35    0.40    0.45    0.95
   15 203   127     0     0    86.9    84.5     2.4     0.0   51.44   48.51    0.09    2.54    0.00   48.91   80.96   10.54    0.00    1.44     2.2     0.4    0.34    0.33    0.28    0.29    0.33    0.39    0.86    0.35    0.29    0.05    0.05    0.06    0.06    0.07    0.08    0.06    0.07    1.79    2.54    0.43    0.39    0.38    0.35    0.36    0.41    0.45    0.93
   15 204   128     0     0    87.1    84.7     2.4     0.0   52.08   49.17    0.09    2.54    0.00   49.54   81.45   10.54    0.00    1.55     2.3     0.4    0.35    0.34    0.29    0.30    0.34    0.39    0.85    0.34    0.26    0.05    0.05    0.05    0.06    0.07    0.07    0.06    0.06    1.89    2.58    0.44    0.40    0.40    0.36    0.37    0.42    0.45    0.91
   15 205   129     0     0    87.3    84.9     2.3     0.0   52.72   49.82    0.09    2.54    0.00   50.18   81.91   10.54    0.00    1.67     2.4     0.4    0.37    0.36    0.31    0.31    0.35    0.39    0.83    0.36    0.24    0.04    0.05    0.05    0.06    0.07    0.07    0.06    0.06    2.02    2.61    0.45    0.41    0.41    0.37    0.38    0.43    0.45    0.90
   15 206   130     0     0    87.4    85.1     2.3     0.0   53.34   50.44    0.09    2.54    0.00   50.80   82.35   10.54    0.00    1.79     2.4     0.4    0.38    0.37    0.32    0.32    0.36    0.40    0.82    0.36    0.22    0.04    0.05    0.05    0.06    0.07    0.07    0.06    0.06    2.15    2.64    0.46    0.42    0.42    0.38    0.39    0.43    0.46    0.89
   15 207   131     0     0    87.6    85.3     2.3     0.0   53.91   51.03    0.09    2.54    0.00   51.38   82.77   10.54    0.00    1.91     2.5     0.4    0.39    0.38    0.33    0.33    0.37    0.40    0.81    0.36    0.20    0.04    0.04    0.05    0.06    0.06    0.07    0.06    0.06    2.27    2.66    0.47    0.43    0.43    0.39    0.40    0.44    0.46    0.87
   15 208   132     0     0    87.7    85.5     2.2     0.0   54.44   51.55    0.09    2.54    0.00   51.91   83.17   10.54    0.00    2.02     2.5     0.4    0.40    0.39    0.34    0.34    0.37    0.40    0.80    0.38    0.19    0.04    0.04    0.05    0.06    0.06    0.07    0.06    0.06    2.40    2.67    0.48    0.44    0.44    0.39    0.40    0.45    0.46    0.86
   15 209   133     0     0    87.7    85.4     2.3     0.0   54.99   52.04    0.09    2.54    0.00   52.45   83.77   10.54    0.00    1.85     2.5     0.4    0.41    0.40    0.35    0.35    0.38    0.40    0.79    0.44    0.18    0.04    0.04    0.05    0.05    0.06    0.07    0.06    0.06    2.29    2.68    0.49    0.45    0.45    0.40    0.41    0.45    0.46    0.85
   15 210   134     0     0    87.6    85.3     2.3     0.0   55.52   52.50    0.09    2.54    0.00   52.98   84.40   10.54    0.00    1.65     2.5     0.5    0.42    0.41    0.35    0.35    0.38    0.40    0.77    0.48    0.17    0.04    0.04    0.04    0.05    0.06    0.07    0.06    0.06    2.13    2.69    0.49    0.46    0.45    0.41    0.42    0.45    0.46    0.84
   15 211   135     0     0    87.4    85.2     2.2     0.0   56.00   52.92    0.09    2.54    0.00   53.47   85.01   10.54    0.00    1.47     2.5     0.5    0.43    0.42    0.36    0.36    0.39    0.40    0.76    0.50    0.16    0.04    0.04    0.04    0.05    0.06    0.07    0.06    0.06    1.97    2.69    0.50    0.47    0.46    0.41    0.42    0.45    0.46    0.82
   15 212   136     0     0    87.4    85.2     2.2     0.0   56.44   53.33    0.09    2.54    0.00   53.90   85.49   10.54    0.00    1.43     2.5     0.5    0.43    0.43    0.37    0.36    0.39    0.40    0.75    0.52    0.15    0.04    0.04    0.04    0.05    0.06    0.07    0.06    0.06    1.95    2.69    0.50    0.47    0.47    0.42    0.42    0.46    0.46    0.81
   15 213   137     0     0    87.4    85.2     2.2     0.0   56.86   53.74    0.09    2.54    0.00   54.33   85.90   10.54    0.00    1.49     2.5     0.5    0.44    0.43    0.37    0.37    0.39    0.40    0.74    0.53    0.14    0.04    0.04    0.04    0.05    0.06    0.07    0.06    0.06    2.01    2.69    0.51    0.48    0.47    0.42    0.43    0.46    0.46    0.80
   15 214   138     0     0    87.4    85.3     2.2     0.0   57.26   54.14    0.09    2.54    0.00   54.72   86.25   10.54    0.00    1.59     2.6     0.5    0.45    0.44    0.38    0.37    0.39    0.40    0.73    0.53    0.13    0.04    0.04    0.04    0.05    0.06    0.07    0.06    0.06    2.12    2.68    0.51    0.49    0.48    0.43    0.43    0.46    0.46    0.79
   15 215   139     0     0    87.5    85.4     2.1     0.0   57.66   54.53    0.09    2.54    0.00   55.12   86.57   10.54    0.00    1.70     2.6     0.5    0.45    0.45    0.39    0.38    0.40    0.40    0.72    0.53    0.12    0.04    0.04    0.04    0.05    0.06    0.07    0.05    0.06    2.23    2.68    0.52    0.49    0.49    0.43    0.44    0.46    0.46    0.78
   15 216   140     0     0    87.6    85.5     2.1     0.0   58.07   54.95    0.09    2.54    0.00   55.53   86.88   10.54    0.00    1.83     2.6     0.5    0.46    0.45    0.39    0.38    0.40    0.40    0.71    0.53    0.12    0.04    0.04    0.04    0.05    0.06    0.07    0.05    0.06    2.35    2.67    0.52    0.50    0.49    0.44    0.44    0.47    0.46    0.77
   15 217   141     0     0    87.8    85.7     2.1     0.0   58.50   55.38    0.09    2.54    0.00   55.96   87.17   10.54    0.00    1.96     2.6     0.5    0.47    0.46    0.40    0.39    0.41    0.41    0.71    0.52    0.11    0.04    0.04    0.04    0.05    0.06    0.06    0.05    0.06    2.47    2.67    0.53    0.51    0.50    0.45    0.45    0.47    0.46    0.77
   15 218   142     0     0    87.9    85.8     2.1     0.0   58.95   55.84    0.09    2.54    0.00   56.41   87.45   10.54    0.00    2.09     2.6     0.5    0.48    0.47    0.41    0.40    0.41    0.41    0.70    0.50    0.10    0.04    0.04    0.04    0.05    0.06    0.06    0.05    0.06    2.59    2.66    0.54    0.51    0.51    0.46    0.46    0.48    0.46    0.76
   15 219   143     0     0    88.1    86.1     2.1     0.0   59.42   56.32    0.09    2.54    0.00   56.88   87.72   10.54    0.00    2.21     2.6     0.5    0.49    0.48    0.42    0.41    0.42    0.41    0.70    0.48    0.08    0.04    0.04    0.04    0.04    0.05    0.06    0.05    0.06    2.69    2.66    0.55    0.52    0.52    0.47    0.46    0.49    0.47    0.76
   15 220   144     0     0    88.3    86.3     2.0     0.0   59.90   56.83    0.09    2.54    0.00   57.37   87.98   10.54    0.00    2.34     2.6     0.5    0.50    0.49    0.43    0.42    0.43    0.42    0.70    0.45    0.07    0.04    0.03    0.04    0.04    0.05    0.06    0.05    0.06    2.78    2.65    0.55    0.53    0.53    0.47    0.47    0.49    0.48    0.76
   15 221   145     0     0    88.6    86.6     2.0     0.0   60.47   57.38    0.09    2.54    0.00   57.93   88.25   10.54    0.00    2.49     2.6     0.5    0.51    0.50    0.44    0.43    0.44    0.43    0.70    0.47    0.06    0.04    0.03    0.04    0.04    0.05    0.06    0.05    0.06    2.96    2.64    0.56    0.54    0.54    0.48    0.48    0.50    0.48    0.76
   15 222   146     0     0    89.0    86.9     2.0     0.0   61.03   57.94    0.09    2.54    0.00   58.49   88.50   10.54    0.00    2.65     2.6     0.5    0.52    0.51    0.46    0.44    0.45    0.44    0.70    0.47    0.06    0.04    0.03    0.03    0.04    0.05    0.06    0.05    0.06    3.12    2.64    0.57    0.55    0.55    0.50    0.50    0.52    0.49    0.76
   15 223   147     0     0    89.3    87.3     2.0     0.0   61.59   58.51    0.09    2.54    0.00   59.06   88.75   10.54    0.00    2.81     2.6     0.5    0.53    0.52    0.47    0.46    0.46    0.44    0.70    0.46    0.05    0.04    0.03    0.03    0.04    0.05    0.06    0.05    0.06    3.27    2.63    0.58    0.56    0.56    0.51    0.51    0.53    0.50    0.76
   15 224   148     0     0    89.8    87.8     2.0     0.0   62.15   59.07    0.09    2.54    0.00   59.61   88.75   10.54    0.00    2.96     2.6     0.6    0.54    0.54    0.48    0.47    0.48    0.46    0.72    0.44    0.05    0.04    0.03    0.03    0.04    0.05    0.06    0.05    0.06    3.40    2.63    0.59    0.57    0.57    0.52    0.52    0.55    0.51    0.78
   15 225   149     0     0    90.4    88.4     2.0     0.0   62.69   59.62    0.09    2.54    0.00   60.15   88.75   10.54    0.00    3.10     2.6     0.6    0.55    0.55    0.49    0.49    0.50    0.48    0.74    0.42    0.05    0.03    0.03    0.03    0.04    0.05    0.06    0.05    0.06    3.52    2.62    0.60    0.58    0.58    0.53    0.54    0.57    0.53    0.80
   15 226   150     0     0    90.9    88.9     2.0     0.0   63.21   60.16    0.09    2.54    0.00   60.68   88.75   10.54    0.00    3.22     2.6     0.6    0.56    0.56    0.50    0.50    0.52    0.49    0.76    0.40    0.05    0.03    0.03    0.03    0.04    0.05    0.06    0.05    0.06    3.62    2.61    0.61    0.59    0.59    0.54    0.55    0.59    0.55    0.82
   15 227   151     0     0    91.6    89.5     2.1     0.0   63.90   60.73    0.09    2.54    0.00   61.36   88.75   10.54    0.00    3.39     2.6     0.6    0.57    0.57    0.52    0.52    0.54    0.51    0.77    0.57    0.04    0.03    0.03    0.03    0.04    0.05    0.06    0.05    0.06    3.97    2.61    0.62    0.60    0.60    0.55    0.57    0.61    0.57    0.83
   15 228   152     0     0    92.2    90.1     2.2     0.0   64.57   61.32    0.09    2.54    0.00   62.03   88.75   10.54    0.00    3.08     2.8     0.6    0.58    0.58    0.53    0.54    0.56    0.53    0.79    0.70    0.04    0.04    0.03    0.03    0.04    0.05    0.06    0.05    0.06    3.77    2.87    0.63    0.61    0.61    0.57    0.59    0.63    0.58    0.85
   15 229   153     0     0    93.0    90.6     2.4     0.0   65.33   61.88    0.09    2.54    0.00   62.80   88.75   10.54    0.00    2.78     3.1     0.6    0.59    0.59    0.54    0.55    0.58    0.54    0.81    0.93    0.08    0.04    0.03    0.03    0.04    0.05    0.06    0.05    0.06    3.72    3.15    0.63    0.62    0.62    0.58    0.60    0.64    0.60    0.87
   15 230   154     0     0    93.8    91.2     2.6     0.0   66.09   62.40    0.09    2.54    0.00   63.55   88.75   10.54    0.00    3.12     3.0     0.6    0.59    0.59    0.54    0.56    0.59    0.56    0.83    1.11    0.18    0.04    0.03    0.03    0.04    0.05    0.06    0.05    0.06    4.24    3.22    0.63    0.62    0.62    0.58    0.61    0.66    0.61    0.90
   15 231   155     0     0    94.5    91.7     2.8     0.0   66.84   62.97    0.09    2.54    0.00   64.31   88.75   10.54    0.00    4.34     2.7     0.6    0.59    0.58    0.54    0.57    0.60    0.57    0.88    1.23    0.26    0.04    0.03    0.03    0.04    0.05    0.06    0.05    0.06    5.57    2.96    0.65    0.62    0.61    0.58    0.62    0.67    0.63    0.94
   15 232   156     0     0    95.2    92.3     2.9     0.0   67.50   63.52    0.09    2.54    0.00   64.96   88.75   10.54    0.00    5.14     2.5     0.6    0.59    0.57    0.55    0.57    0.61    0.59    0.91    1.30    0.32    0.04    0.03    0.03    0.04    0.05    0.06    0.05    0.06    6.43    2.86    0.64    0.62    0.61    0.59    0.62    0.68    0.64    0.97
   15 233   157     0     0    95.8    92.8     2.9     0.0   68.10   64.06    0.09    2.54    0.00   65.56   88.75   10.54    0.00    5.41     2.6     0.6    0.59    0.58    0.55    0.58    0.63    0.60    0.93    1.32    0.36    0.04    0.03    0.03    0.04    0.05    0.06    0.05    0.06    6.73    2.94    0.65    0.62    0.61    0.59    0.63    0.69    0.65    0.99
   15 234   158     0     0    96.3    93.4     3.0     0.0   68.66   64.60    0.09    2.54    0.00   66.12   88.75   10.54    0.00    5.68     2.6     0.6    0.60    0.59    0.56    0.59    0.64    0.61    0.94    1.32    0.38    0.04    0.03    0.03    0.04    0.05    0.06    0.05    0.06    6.99    3.02    0.65    0.63    0.62    0.60    0.64    0.70    0.66    1.00
   15 235   159     0     0    96.9    93.9     3.0     0.0   69.23   65.17    0.09    2.54    0.00   66.69   88.75   10.54    0.00    5.95     2.7     0.6    0.60    0.59    0.57    0.60    0.65    0.62    0.95    1.28    0.41    0.04    0.03    0.03    0.04    0.05    0.06    0.05    0.06    7.24    3.10    0.66    0.63    0.62    0.61    0.65    0.71    0.67    1.01
   15 236   160     0     0    97.5    94.5     3.0     0.0   69.85   65.75    0.09    2.54    0.00   67.32   88.75   10.54    0.00    2.68     3.7     2.2    0.61    0.60    0.58    0.61    0.66    0.63    0.96    1.32    0.42    0.04    0.03    0.03    0.04    0.05    0.06    0.05    0.06    3.99    4.13    2.25    0.64    0.63    0.61    0.66    0.72    0.69    1.02
   15 237   161     0     0    98.4    95.0     3.4     0.0   70.75   66.30    0.09    2.54    0.00   68.21   88.75   10.54    0.00    3.23     3.5     2.6    0.60    0.59    0.58    0.62    0.67    0.65    1.01    1.43    0.63    0.05    0.03    0.03    0.04    0.05    0.06    0.05    0.06    4.65    4.11    2.69    0.63    0.62    0.61    0.67    0.73    0.70    1.06
