*SOIL-PLANT-ATMOSPHERE MODULE OUTPUT FILE

*DSSAT Cropping System Model Ver. 4.8.5.000 -release  MAR 01, 2026 09:34:40

*RUN   1        : 1                         WHAPS048 TUDU1701    1
 MODEL          : WHAPS048 - Wheat
 EXPERIMENT     : TUDU1701 WH
 DATA PATH      :
 TREATMENT  1   : 1                         WHAPS048
  
@YEAR DOY   DAS   SRAA  TMAXA  TMINA    REFA    EOAA    EOPA    EOSA    ETAA    EPAA    ESAA    EFAA    EMAA    EOAC    ETAC    EPAC    ESAC    EFAC    EMAC    KCAA    KBSA    KEAA
   16 298     1   7.20  17.50   7.00 -99.000   1.550   0.000   1.550   1.550   0.000   1.550   0.000   0.000    1.55    1.55    0.00    1.55    0.00    0.00 -99.000 -99.000 -99.000 
   16 299     2   3.20  14.50   7.10 -99.000   0.663   0.000   0.663   0.663   0.000   0.663   0.000   0.000    2.21    2.21    0.00    2.21    0.00    0.00 -99.000 -99.000 -99.000 
   16 300     3   4.50  12.90   3.90 -99.000   0.882   0.000   0.882   0.882   0.000   0.882   0.000   0.000    3.10    3.10    0.00    3.10    0.00    0.00 -99.000 -99.000 -99.000 
   16 301     4   7.60  11.10   1.40 -99.000   1.401   0.000   1.401   1.401   0.000   1.401   0.000   0.000    4.50    4.50    0.00    4.50    0.00    0.00 -99.000 -99.000 -99.000 
   16 302     5   8.00  11.90   0.60 -99.000   1.472   0.000   1.472   1.472   0.000   1.472   0.000   0.000    5.97    5.97    0.00    5.97    0.00    0.00 -99.000 -99.000 -99.000 
   16 303     6   5.10  11.80   2.20 -99.000   0.947   0.000   0.947   0.947   0.000   0.947   0.000   0.000    6.92    6.92    0.00    6.92    0.00    0.00 -99.000 -99.000 -99.000 
   16 304     7   8.50  11.60   0.70 -99.000   1.543   0.000   1.543   1.300   0.000   1.300   0.000   0.000    8.46    8.22    0.00    8.22    0.00    0.00 -99.000 -99.000 -99.000 
   16 305     8   8.60  10.40   0.30 -99.000   1.515   0.000   1.515   1.515   0.000   1.515   0.000   0.000    9.97    9.73    0.00    9.73    0.00    0.00 -99.000 -99.000 -99.000 
   16 306     9   5.60   6.10   0.50 -99.000   0.910   0.000   0.910   0.713   0.000   0.713   0.000   0.000   10.88   10.44    0.00   10.44    0.00    0.00 -99.000 -99.000 -99.000 
   16 307    10   3.40   9.00   2.80 -99.000   0.595   0.000   0.595   0.000   0.000   0.000   0.000   0.000   11.48   10.44    0.00   10.44    0.00    0.00 -99.000 -99.000 -99.000 
   16 308    11   5.90   8.20  -1.90 -99.000   0.969   0.000   0.969   0.896   0.000   0.896   0.000   0.000   12.45   11.34    0.00   11.34    0.00    0.00 -99.000 -99.000 -99.000 
   16 309    12   6.50   8.50  -2.70 -99.000   1.058   0.000   1.058   0.000   0.000   0.000   0.000   0.000   13.51   11.34    0.00   11.34    0.00    0.00 -99.000 -99.000 -99.000 
   16 310    13   3.60  12.00   2.90 -99.000   0.664   0.000   0.664   0.199   0.000   0.199   0.000   0.000   14.17   11.54    0.00   11.54    0.00    0.00 -99.000 -99.000 -99.000 
   16 311    14   2.30   6.50   2.40 -99.000   0.399   0.000   0.399   0.399   0.000   0.399   0.000   0.000   14.57   11.94    0.00   11.94    0.00    0.00 -99.000 -99.000 -99.000 
   16 312    15   4.50   3.70  -1.60 -99.000   0.461   0.005   0.456   0.461   0.005   0.456   0.000   0.000   15.03   12.40    0.01   12.39    0.00    0.00 -99.000 -99.000 -99.000 
   16 313    16   4.40   3.80  -1.00 -99.000   0.459   0.005   0.454   0.455   0.001   0.454   0.000   0.000   15.49   12.85    0.01   12.85    0.00    0.00 -99.000 -99.000 -99.000 
   16 314    17   5.90   4.90   0.20 -99.000   0.775   0.009   0.766   0.767   0.001   0.766   0.000   0.000   16.26   13.62    0.01   13.61    0.00    0.00 -99.000 -99.000 -99.000 
   16 315    18   3.70   6.10   2.90 -99.000   0.641   0.008   0.633   0.635   0.002   0.633   0.000   0.000   16.90   14.26    0.01   14.25    0.00    0.00 -99.000 -99.000 -99.000 
   16 316    19   2.70   5.00   1.40 -99.000   0.454   0.006   0.448   0.449   0.001   0.448   0.000   0.000   17.36   14.70    0.01   14.69    0.00    0.00 -99.000 -99.000 -99.000 
   16 317    20   3.60   3.50  -1.80 -99.000   0.353   0.005   0.348   0.349   0.001   0.348   0.000   0.000   17.71   15.05    0.01   15.04    0.00    0.00 -99.000 -99.000 -99.000 
   16 318    21   4.40   1.80  -2.90 -99.000   0.300   0.004   0.296   0.297   0.001   0.296   0.000   0.000   18.01   15.35    0.01   15.34    0.00    0.00 -99.000 -99.000 -99.000 
   16 319    22   5.80   2.50  -3.80 -99.000   0.447   0.006   0.441   0.442   0.001   0.441   0.000   0.000   18.46   15.79    0.01   15.78    0.00    0.00 -99.000 -99.000 -99.000 
   16 320    23   3.80   5.30  -1.60 -99.000   0.610   0.009   0.601   0.602   0.001   0.601   0.000   0.000   19.07   16.39    0.01   16.38    0.00    0.00 -99.000 -99.000 -99.000 
   16 321    24   1.90   9.00   5.30 -99.000   0.356   0.005   0.351   0.353   0.002   0.351   0.000   0.000   19.42   16.75    0.02   16.73    0.00    0.00 -99.000 -99.000 -99.000 
   16 322    25   3.80  10.80   4.30 -99.000   0.731   0.011   0.720   0.721   0.001   0.720   0.000   0.000   20.16   17.47    0.02   17.45    0.00    0.00 -99.000 -99.000 -99.000 
   16 323    26   2.40  12.90   3.40 -99.000   0.469   0.008   0.461   0.466   0.005   0.461   0.000   0.000   20.62   17.93    0.02   17.91    0.00    0.00 -99.000 -99.000 -99.000 
   16 324    27   1.50   7.20   0.00 -99.000   0.258   0.004   0.254   0.259   0.005   0.254   0.000   0.000   20.88   18.19    0.03   18.17    0.00    0.00 -99.000 -99.000 -99.000 
   16 325    28   6.00   9.00   0.10 -99.000   1.068   0.018   1.050   1.051   0.001   1.050   0.000   0.000   21.95   19.24    0.03   19.22    0.00    0.00 -99.000 -99.000 -99.000 
   16 326    29   4.20  15.10   1.60 -99.000   0.830   0.016   0.814   0.822   0.008   0.814   0.000   0.000   22.78   20.07    0.04   20.03    0.00    0.00 -99.000 -99.000 -99.000 
   16 327    30   3.00  13.40   2.70 -99.000   0.581   0.012   0.569   0.585   0.017   0.569   0.000   0.000   23.36   20.65    0.05   20.60    0.00    0.00 -99.000 -99.000 -99.000 
   16 328    31   4.30  11.30   0.90 -99.000   0.787   0.017   0.770   0.779   0.010   0.770   0.000   0.000   24.15   21.43    0.06   21.37    0.00    0.00 -99.000 -99.000 -99.000 
   16 329    32   2.30   5.90   4.90 -99.000   0.400   0.009   0.391   0.402   0.011   0.391   0.000   0.000   24.55   21.83    0.07   21.76    0.00    0.00 -99.000 -99.000 -99.000 
   16 330    33   2.60   7.70   4.80 -99.000   0.465   0.011   0.454   0.455   0.000   0.454   0.000   0.000   25.01   22.29    0.08   22.21    0.00    0.00 -99.000 -99.000 -99.000 
   16 331    34   1.90   6.50   5.10 -99.000   0.334   0.008   0.325   0.327   0.002   0.325   0.000   0.000   25.35   22.62    0.08   22.54    0.00    0.00 -99.000 -99.000 -99.000 
   16 332    35   3.40   7.00  -0.80 -99.000   0.562   0.014   0.547   0.548   0.001   0.547   0.000   0.000   25.91   23.16    0.08   23.09    0.00    0.00 -99.000 -99.000 -99.000 
   16 333    36   5.40   1.10  -3.50 -99.000   0.310   0.008   0.302   0.307   0.005   0.302   0.000   0.000   26.22   23.47    0.08   23.39    0.00    0.00 -99.000 -99.000 -99.000 
   16 334    37   6.50   0.50  -6.70 -99.000   0.315   0.009   0.307   0.308   0.001   0.307   0.000   0.000   26.53   23.78    0.08   23.69    0.00    0.00 -99.000 -99.000 -99.000 
   16 335    38   5.70   2.70  -7.80 -99.000   0.424   0.011   0.413   0.414   0.001   0.413   0.000   0.000   26.96   24.19    0.08   24.11    0.00    0.00 -99.000 -99.000 -99.000 
   16 336    39   3.40   4.60  -0.10 -99.000   0.410   0.011   0.399   0.323   0.001   0.321   0.000   0.000   27.37   24.51    0.09   24.43    0.00    0.00 -99.000 -99.000 -99.000 
   16 337    40   3.00   5.00  -0.60 -99.000   0.475   0.013   0.462   0.464   0.002   0.462   0.000   0.000   27.84   24.98    0.09   24.89    0.00    0.00 -99.000 -99.000 -99.000 
   16 338    41   5.50  -0.60  -3.90 -99.000   0.222   0.006   0.216   0.219   0.003   0.216   0.000   0.000   28.07   25.20    0.09   25.11    0.00    0.00 -99.000 -99.000 -99.000 
   16 339    42   3.70  -0.70  -7.30 -99.000   0.139   0.004   0.135   0.136   0.000   0.135   0.000   0.000   28.20   25.33    0.09   25.24    0.00    0.00 -99.000 -99.000 -99.000 
   16 340    43   2.70  -2.00  -3.80 -99.000   0.082   0.002   0.080   0.081   0.001   0.080   0.000   0.000   28.29   25.41    0.09   25.32    0.00    0.00 -99.000 -99.000 -99.000 
   16 341    44   4.30  -0.80  -5.20 -99.000   0.163   0.005   0.159   0.132   0.000   0.132   0.000   0.000   28.45   25.55    0.09   25.45    0.00    0.00 -99.000 -99.000 -99.000 
   16 342    45   3.30  -1.90  -3.50 -99.000   0.103   0.003   0.100   0.101   0.001   0.100   0.000   0.000   28.55   25.65    0.09   25.55    0.00    0.00 -99.000 -99.000 -99.000 
   16 343    46   5.00   3.90  -4.50 -99.000   0.494   0.014   0.480   0.480   0.000   0.480   0.000   0.000   29.05   26.13    0.09   26.03    0.00    0.00 -99.000 -99.000 -99.000 
   16 344    47   4.20   7.90  -4.20 -99.000   0.670   0.019   0.651   0.652   0.001   0.651   0.000   0.000   29.72   26.78    0.09   26.68    0.00    0.00 -99.000 -99.000 -99.000 
   16 345    48   5.50   8.20  -2.80 -99.000   0.895   0.026   0.869   0.871   0.002   0.869   0.000   0.000   30.61   27.65    0.10   27.55    0.00    0.00 -99.000 -99.000 -99.000 
   16 346    49   2.00   5.20  -3.80 -99.000   0.302   0.009   0.293   0.306   0.013   0.293   0.000   0.000   30.91   27.95    0.11   27.84    0.00    0.00 -99.000 -99.000 -99.000 
   16 347    50   2.40   4.80  -1.40 -99.000   0.295   0.009   0.285   0.288   0.003   0.285   0.000   0.000   31.21   28.24    0.11   28.13    0.00    0.00 -99.000 -99.000 -99.000 
   16 348    51   4.10   5.50  -3.50 -99.000   0.629   0.021   0.608   0.611   0.002   0.608   0.000   0.000   31.84   28.85    0.11   28.74    0.00    0.00 -99.000 -99.000 -99.000 
   16 349    52   3.70   8.30  -0.10 -99.000   0.622   0.021   0.601   0.607   0.006   0.601   0.000   0.000   32.46   29.46    0.12   29.34    0.00    0.00 -99.000 -99.000 -99.000 
   16 350    53   1.80   4.20   0.80 -99.000   0.201   0.007   0.194   0.203   0.009   0.194   0.000   0.000   32.66   29.66    0.13   29.53    0.00    0.00 -99.000 -99.000 -99.000 
   16 351    54   1.60   0.70  -1.70 -99.000   0.086   0.003   0.083   0.084   0.001   0.083   0.000   0.000   32.75   29.75    0.13   29.62    0.00    0.00 -99.000 -99.000 -99.000 
   16 352    55   2.70  -0.90  -2.20 -99.000   0.104   0.004   0.100   0.101   0.000   0.100   0.000   0.000   32.85   29.85    0.13   29.72    0.00    0.00 -99.000 -99.000 -99.000 
   16 353    56   1.90   1.20  -1.10 -99.000   0.113   0.004   0.109   0.109   0.000   0.109   0.000   0.000   32.96   29.96    0.13   29.83    0.00    0.00 -99.000 -99.000 -99.000 
   16 354    57   2.20   1.30  -1.10 -99.000   0.134   0.005   0.129   0.130   0.000   0.129   0.000   0.000   33.10   30.09    0.13   29.95    0.00    0.00 -99.000 -99.000 -99.000 
   16 355    58   2.30  -0.80  -2.40 -99.000   0.090   0.003   0.087   0.087   0.000   0.087   0.000   0.000   33.19   30.17    0.13   30.04    0.00    0.00 -99.000 -99.000 -99.000 
   16 356    59   1.60  -1.80  -2.60 -99.000   0.051   0.002   0.049   0.049   0.000   0.049   0.000   0.000   33.24   30.22    0.13   30.09    0.00    0.00 -99.000 -99.000 -99.000 
   16 357    60   3.00  -1.60  -3.20 -99.000   0.099   0.004   0.095   0.095   0.000   0.095   0.000   0.000   33.34   30.32    0.13   30.19    0.00    0.00 -99.000 -99.000 -99.000 
   16 358    61   2.60   2.40  -2.70 -99.000   0.193   0.007   0.186   0.186   0.000   0.186   0.000   0.000   33.53   30.50    0.13   30.37    0.00    0.00 -99.000 -99.000 -99.000 
   16 359    62   2.00   6.70   0.40 -99.000   0.328   0.012   0.316   0.317   0.001   0.316   0.000   0.000   33.86   30.82    0.13   30.69    0.00    0.00 -99.000 -99.000 -99.000 
   16 360    63   2.40   8.40   4.50 -99.000   0.426   0.016   0.410   0.413   0.003   0.410   0.000   0.000   34.28   31.24    0.14   31.10    0.00    0.00 -99.000 -99.000 -99.000 
   16 361    64   2.90  10.70   2.10 -99.000   0.520   0.020   0.500   0.503   0.004   0.500   0.000   0.000   34.80   31.74    0.14   31.60    0.00    0.00 -99.000 -99.000 -99.000 
   16 362    65   3.40   4.10   0.10 -99.000   0.369   0.015   0.354   0.365   0.011   0.354   0.000   0.000   35.17   32.10    0.15   31.95    0.00    0.00 -99.000 -99.000 -99.000 
   16 363    66   2.80   3.90  -0.70 -99.000   0.289   0.012   0.276   0.279   0.003   0.276   0.000   0.000   35.46   32.38    0.16   32.23    0.00    0.00 -99.000 -99.000 -99.000 
   16 364    67   4.40   4.00  -3.50 -99.000   0.445   0.019   0.426   0.429   0.003   0.426   0.000   0.000   35.91   32.81    0.16   32.65    0.00    0.00 -99.000 -99.000 -99.000 
   16 365    68   3.70   2.40  -6.30 -99.000   0.261   0.011   0.250   0.255   0.005   0.250   0.000   0.000   36.17   33.07    0.16   32.90    0.00    0.00 -99.000 -99.000 -99.000 
   16 366    69   3.50  -3.10  -5.90 -99.000   0.081   0.004   0.078   0.079   0.001   0.078   0.000   0.000   36.25   33.15    0.16   32.98    0.00    0.00 -99.000 -99.000 -99.000 
   17 001    70   4.50  -2.40  -8.70 -99.000   0.115   0.005   0.110   0.111   0.000   0.110   0.000   0.000   36.36   33.26    0.17   33.09    0.00    0.00 -99.000 -99.000 -99.000 
   17 002    71   1.40  -0.60  -9.70 -99.000   0.051   0.002   0.049   0.049   0.001   0.049   0.000   0.000   36.42   33.31    0.17   33.14    0.00    0.00 -99.000 -99.000 -99.000 
   17 003    72   2.90  -0.60  -2.80 -99.000   0.117   0.005   0.112   0.113   0.001   0.112   0.000   0.000   36.53   33.42    0.17   33.25    0.00    0.00 -99.000 -99.000 -99.000 
   17 004    73   1.70   0.90  -1.40 -99.000   0.095   0.004   0.091   0.091   0.000   0.091   0.000   0.000   36.63   33.51    0.17   33.34    0.00    0.00 -99.000 -99.000 -99.000 
   17 005    74   2.80  -0.10  -8.40 -99.000   0.115   0.005   0.110   0.110   0.000   0.110   0.000   0.000   36.74   33.62    0.17   33.45    0.00    0.00 -99.000 -99.000 -99.000 
   17 006    75   4.70  -7.10 -18.00 -99.000   0.038   0.002   0.036   0.037   0.001   0.036   0.000   0.000   36.78   33.66    0.17   33.49    0.00    0.00 -99.000 -99.000 -99.000 
   17 007    76   2.70  -5.60 -18.00 -99.000   0.030   0.001   0.028   0.029   0.001   0.028   0.000   0.000   36.81   33.69    0.17   33.52    0.00    0.00 -99.000 -99.000 -99.000 
   17 008    77   2.20  -1.70  -5.60 -99.000   0.068   0.003   0.065   0.066   0.001   0.065   0.000   0.000   36.88   33.75    0.17   33.58    0.00    0.00 -99.000 -99.000 -99.000 
   17 009    78   1.40  -1.00  -4.10 -99.000   0.051   0.002   0.049   0.049   0.000   0.049   0.000   0.000   36.93   33.80    0.17   33.63    0.00    0.00 -99.000 -99.000 -99.000 
   17 010    79   3.40  -2.70  -7.10 -99.000   0.084   0.004   0.080   0.081   0.000   0.080   0.000   0.000   37.01   33.88    0.17   33.71    0.00    0.00 -99.000 -99.000 -99.000 
   17 011    80   1.90   2.70  -8.00 -99.000   0.138   0.006   0.132   0.133   0.001   0.132   0.000   0.000   37.15   34.02    0.17   33.84    0.00    0.00 -99.000 -99.000 -99.000 
   17 012    81   2.30   3.90   1.30 -99.000   0.242   0.011   0.232   0.233   0.001   0.232   0.000   0.000   37.39   34.25    0.17   34.08    0.00    0.00 -99.000 -99.000 -99.000 
   17 013    82   2.40   4.60  -2.20 -99.000   0.288   0.013   0.275   0.277   0.001   0.275   0.000   0.000   37.68   34.52    0.17   34.35    0.00    0.00 -99.000 -99.000 -99.000 
   17 014    83   2.00   0.80  -2.70 -99.000   0.111   0.005   0.106   0.109   0.003   0.106   0.000   0.000   37.79   34.63    0.18   34.46    0.00    0.00 -99.000 -99.000 -99.000 
   17 015    84   3.10  -1.10  -4.70 -99.000   0.113   0.005   0.108   0.109   0.001   0.108   0.000   0.000   37.91   34.74    0.18   34.56    0.00    0.00 -99.000 -99.000 -99.000 
   17 016    85   3.30  -2.00  -6.00 -99.000   0.098   0.004   0.094   0.095   0.000   0.094   0.000   0.000   38.00   34.84    0.18   34.66    0.00    0.00 -99.000 -99.000 -99.000 
   17 017    86   4.70  -3.80  -8.20 -99.000   0.094   0.004   0.089   0.090   0.000   0.089   0.000   0.000   38.10   34.93    0.18   34.75    0.00    0.00 -99.000 -99.000 -99.000 
   17 018    87   3.60  -3.80  -6.50 -99.000   0.074   0.003   0.070   0.071   0.000   0.070   0.000   0.000   38.17   35.00    0.18   34.82    0.00    0.00 -99.000 -99.000 -99.000 
   17 019    88   6.30  -3.50  -9.90 -99.000   0.129   0.006   0.124   0.124   0.000   0.124   0.000   0.000   38.30   35.12    0.18   34.94    0.00    0.00 -99.000 -99.000 -99.000 
   17 020    89   6.70  -2.20 -11.00 -99.000   0.177   0.008   0.169   0.169   0.001   0.169   0.000   0.000   38.48   35.29    0.18   35.11    0.00    0.00 -99.000 -99.000 -99.000 
   17 021    90   7.10  -5.70 -15.00 -99.000   0.084   0.004   0.080   0.081   0.001   0.080   0.000   0.000   38.56   35.37    0.18   35.19    0.00    0.00 -99.000 -99.000 -99.000 
   17 022    91   5.70  -6.90 -15.00 -99.000   0.052   0.002   0.050   0.051   0.001   0.050   0.000   0.000   38.61   35.42    0.18   35.24    0.00    0.00 -99.000 -99.000 -99.000 
   17 023    92   5.00  -8.30 -17.00 -99.000   0.032   0.001   0.031   0.032   0.001   0.031   0.000   0.000   38.65   35.45    0.18   35.27    0.00    0.00 -99.000 -99.000 -99.000 
   17 024    93   2.00  -7.10 -12.00 -99.000   0.019   0.001   0.018   0.018   0.001   0.018   0.000   0.000   38.66   35.47    0.18   35.29    0.00    0.00 -99.000 -99.000 -99.000 
   17 025    94   2.00  -3.40 -10.00 -99.000   0.042   0.002   0.040   0.040   0.000   0.040   0.000   0.000   38.71   35.51    0.18   35.33    0.00    0.00 -99.000 -99.000 -99.000 
   17 026    95   5.00  -1.40  -9.80 -99.000   0.158   0.007   0.151   0.152   0.001   0.151   0.000   0.000   38.86   35.66    0.18   35.48    0.00    0.00 -99.000 -99.000 -99.000 
   17 027    96   7.50   0.10 -12.00 -99.000   0.311   0.014   0.297   0.298   0.001   0.297   0.000   0.000   39.18   35.96    0.19   35.78    0.00    0.00 -99.000 -99.000 -99.000 
   17 028    97   6.30  -1.80 -11.00 -99.000   0.180   0.008   0.171   0.173   0.001   0.171   0.000   0.000   39.35   36.14    0.19   35.95    0.00    0.00 -99.000 -99.000 -99.000 
   17 029    98   7.60   1.80 -12.00 -99.000   0.445   0.020   0.425   0.426   0.001   0.425   0.000   0.000   39.80   36.56    0.19   36.37    0.00    0.00 -99.000 -99.000 -99.000 
   17 030    99   5.20   1.60 -10.00 -99.000   0.301   0.014   0.287   0.289   0.002   0.287   0.000   0.000   40.10   36.85    0.19   36.66    0.00    0.00 -99.000 -99.000 -99.000 
   17 031   100   5.00   4.50   0.00 -99.000   0.601   0.027   0.574   0.575   0.001   0.574   0.000   0.000   40.70   37.43    0.19   37.23    0.00    0.00 -99.000 -99.000 -99.000 
   17 032   101   3.60   2.50  -0.30 -99.000   0.292   0.014   0.278   0.284   0.005   0.278   0.000   0.000   40.99   37.71    0.20   37.51    0.00    0.00 -99.000 -99.000 -99.000 
   17 033   102   5.10   4.90  -0.50 -99.000   0.661   0.032   0.629   0.631   0.002   0.629   0.000   0.000   41.65   38.34    0.20   38.14    0.00    0.00 -99.000 -99.000 -99.000 
   17 034   103   3.70   4.10  -2.50 -99.000   0.397   0.020   0.376   0.384   0.007   0.376   0.000   0.000   42.05   38.72    0.21   38.52    0.00    0.00 -99.000 -99.000 -99.000 
   17 035   104   6.20   6.80  -1.10 -99.000   1.022   0.054   0.968   0.973   0.005   0.968   0.000   0.000   43.07   39.70    0.21   39.49    0.00    0.00 -99.000 -99.000 -99.000 
   17 036   105   7.10   8.10  -1.20 -99.000   1.192   0.067   1.125   1.142   0.017   1.125   0.000   0.000   44.27   40.84    0.23   40.61    0.00    0.00 -99.000 -99.000 -99.000 
   17 037   106   3.90   3.80   0.30 -99.000   0.404   0.025   0.379   0.406   0.027   0.379   0.000   0.000   44.67   41.24    0.26   40.99    0.00    0.00 -99.000 -99.000 -99.000 
   17 038   107   5.60   5.90  -0.10 -99.000   0.909   0.058   0.851   0.855   0.004   0.851   0.000   0.000   45.58   42.10    0.26   41.84    0.00    0.00 -99.000 -99.000 -99.000 
   17 039   108   4.70   2.00  -2.10 -99.000   0.327   0.022   0.305   0.319   0.014   0.305   0.000   0.000   45.91   42.42    0.27   42.15    0.00    0.00 -99.000 -99.000 -99.000 
   17 040   109   4.70   0.20  -2.60 -99.000   0.226   0.015   0.211   0.214   0.004   0.211   0.000   0.000   46.13   42.63    0.28   42.36    0.00    0.00 -99.000 -99.000 -99.000 
   17 041   110   3.80  -1.00  -3.00 -99.000   0.143   0.010   0.133   0.134   0.001   0.133   0.000   0.000   46.27   42.77    0.28   42.49    0.00    0.00 -99.000 -99.000 -99.000 
   17 042   111   9.40   4.30  -5.20 -99.000   0.992   0.067   0.925   0.744   0.000   0.743   0.000   0.000   47.27   43.51    0.28   43.23    0.00    0.00 -99.000 -99.000 -99.000 
   17 043   112   4.10   0.10  -1.30 -99.000   0.196   0.013   0.183   0.184   0.002   0.183   0.000   0.000   47.46   43.70    0.28   43.42    0.00    0.00 -99.000 -99.000 -99.000 
   17 044   113   4.80   4.10  -1.00 -99.000   0.513   0.035   0.478   0.479   0.001   0.478   0.000   0.000   47.97   44.17    0.28   43.89    0.00    0.00 -99.000 -99.000 -99.000 
   17 045   114   9.70   7.50  -4.80 -99.000   1.510   0.106   1.404   1.412   0.008   1.404   0.000   0.000   49.48   45.59    0.29   45.30    0.00    0.00 -99.000 -99.000 -99.000 
   17 046   115   9.90   9.90  -5.00 -99.000   1.598   0.113   1.486   1.156   0.002   1.154   0.000   0.000   51.08   46.74    0.29   46.45    0.00    0.00 -99.000 -99.000 -99.000 
   17 047   116  10.90  13.80  -3.20 -99.000   1.914   0.136   1.779   0.003   0.003   0.000   0.000   0.000   53.00   46.74    0.29   46.45    0.00    0.00 -99.000 -99.000 -99.000 
   17 048   117   4.70   4.50   0.60 -99.000   0.552   0.045   0.507   0.630   0.123   0.507   0.000   0.000   53.55   47.37    0.42   46.96    0.00    0.00 -99.000 -99.000 -99.000 
   17 049   118   5.30   6.00  -2.00 -99.000   0.842   0.072   0.771   0.779   0.008   0.771   0.000   0.000   54.39   48.15    0.42   47.73    0.00    0.00 -99.000 -99.000 -99.000 
   17 050   119   7.70   5.60  -3.40 -99.000   1.189   0.106   1.083   1.104   0.021   1.083   0.000   0.000   55.58   49.26    0.45   48.81    0.00    0.00 -99.000 -99.000 -99.000 
   17 051   120   7.10   8.40   2.30 -99.000   1.233   0.112   1.121   1.149   0.028   1.121   0.000   0.000   56.81   50.41    0.47   49.93    0.00    0.00 -99.000 -99.000 -99.000 
   17 052   121   3.60   9.00   6.00 -99.000   0.660   0.066   0.594   0.629   0.035   0.594   0.000   0.000   57.47   51.04    0.51   50.53    0.00    0.00 -99.000 -99.000 -99.000 
   17 053   122   4.00  11.00   7.80 -99.000   0.779   0.082   0.698   0.711   0.013   0.698   0.000   0.000   58.25   51.75    0.52   51.22    0.00    0.00 -99.000 -99.000 -99.000 
   17 054   123   8.80  16.70   6.40 -99.000   1.829   0.205   1.624   1.645   0.020   1.624   0.000   0.000   60.08   53.39    0.54   52.85    0.00    0.00 -99.000 -99.000 -99.000 
   17 055   124   6.60  11.10  -1.70 -99.000   1.144   0.146   0.998   1.169   0.171   0.998   0.000   0.000   61.23   54.56    0.71   53.85    0.00    0.00 -99.000 -99.000 -99.000 
   17 056   125  12.80   8.20  -3.60 -99.000   2.047   0.286   1.762   1.867   0.105   1.762   0.000   0.000   63.27   56.43    0.82   55.61    0.00    0.00 -99.000 -99.000 -99.000 
   17 057   126   8.60  10.30  -1.70 -99.000   1.450   0.211   1.240   0.983   0.109   0.873   0.000   0.000   64.72   57.41    0.93   56.48    0.00    0.00 -99.000 -99.000 -99.000 
   17 058   127  12.60  13.30  -3.20 -99.000   2.186   0.349   1.837   1.960   0.123   1.837   0.000   0.000   66.91   59.37    1.05   58.32    0.00    0.00 -99.000 -99.000 -99.000 
   17 059   128   3.60   6.40   0.30 -99.000   0.571   0.103   0.468   0.752   0.284   0.468   0.000   0.000   67.48   60.12    1.33   58.79    0.00    0.00 -99.000 -99.000 -99.000 
   17 060   129   7.20   7.50   2.10 -99.000   1.230   0.230   1.001   1.029   0.028   1.001   0.000   0.000   68.71   61.15    1.36   59.79    0.00    0.00 -99.000 -99.000 -99.000 
   17 061   130  13.00  10.20  -1.20 -99.000   2.240   0.450   1.791   1.849   0.059   1.791   0.000   0.000   70.95   63.00    1.42   61.58    0.00    0.00 -99.000 -99.000 -99.000 
   17 062   131   9.00   9.90  -2.60 -99.000   1.497   0.325   1.173   1.386   0.213   1.173   0.000   0.000   72.45   64.39    1.63   62.75    0.00    0.00 -99.000 -99.000 -99.000 
   17 063   132   9.90  16.80   2.70 -99.000   1.938   0.442   1.497   1.679   0.182   1.497   0.000   0.000   74.39   66.07    1.82   64.25    0.00    0.00 -99.000 -99.000 -99.000 
   17 064   133   9.40   9.80   2.10 -99.000   1.622   0.417   1.206   1.666   0.460   1.206   0.000   0.000   76.01   67.73    2.28   65.45    0.00    0.00 -99.000 -99.000 -99.000 
   17 065   134   7.30   8.30   3.30 -99.000   1.247   0.346   0.901   1.070   0.169   0.901   0.000   0.000   77.25   68.80    2.45   66.36    0.00    0.00 -99.000 -99.000 -99.000 
   17 066   135   7.00   6.60   0.60 -99.000   1.122   0.333   0.790   0.884   0.094   0.790   0.000   0.000   78.38   69.69    2.54   67.15    0.00    0.00 -99.000 -99.000 -99.000 
   17 067   136   7.60   8.10   0.00 -99.000   1.239   0.378   0.862   0.948   0.086   0.862   0.000   0.000   79.61   70.63    2.63   68.01    0.00    0.00 -99.000 -99.000 -99.000 
   17 068   137   3.80   9.60   7.00 -99.000   0.693   0.218   0.476   0.618   0.143   0.476   0.000   0.000   80.31   71.25    2.77   68.48    0.00    0.00 -99.000 -99.000 -99.000 
   17 069   138  11.60   8.30  -1.30 -99.000   1.885   0.619   1.267   1.309   0.042   1.267   0.000   0.000   82.19   72.56    2.81   69.75    0.00    0.00 -99.000 -99.000 -99.000 
   17 070   139  14.40   9.50  -3.10 -99.000   2.315   0.783   1.534   1.761   0.227   1.534   0.000   0.000   84.51   74.32    3.04   71.28    0.00    0.00 -99.000 -99.000 -99.000 
   17 071   140  16.00   9.10   0.30 -99.000   2.640   0.916   1.726   2.090   0.364   1.726   0.000   0.000   87.15   76.41    3.40   73.01    0.00    0.00 -99.000 -99.000 -99.000 
   17 072   141  16.00  10.30  -1.60 -99.000   2.619   0.942   1.680   1.723   0.316   1.407   0.000   0.000   89.77   78.13    3.72   74.42    0.00    0.00 -99.000 -99.000 -99.000 
   17 073   142  12.40  11.50  -1.60 -99.000   2.062   0.769   1.294   1.747   0.453   1.294   0.000   0.000   91.83   79.88    4.17   75.71    0.00    0.00 -99.000 -99.000 -99.000 
   17 074   143   9.70  11.70   1.00 -99.000   1.657   0.646   1.012   1.501   0.489   1.012   0.000   0.000   93.49   81.38    4.66   76.72    0.00    0.00 -99.000 -99.000 -99.000 
   17 075   144  16.40  15.10  -0.90 -99.000   2.886   1.185   1.703   2.109   0.406   1.703   0.000   0.000   96.37   83.49    5.06   78.43    0.00    0.00 -99.000 -99.000 -99.000 
   17 076   145  14.20  19.30  -0.20 -99.000   2.664   1.169   1.496   2.352   1.046   1.306   0.000   0.000   99.04   85.84    6.11   79.73    0.00    0.00 -99.000 -99.000 -99.000 
   17 077   146   4.00   8.80   6.60 -99.000   0.681   0.327   0.355   1.852   1.609   0.243   0.000   0.000   99.72   87.69    7.72   79.97    0.00    0.00 -99.000 -99.000 -99.000 
   17 078   147   6.60  13.20   8.10 -99.000   1.230   0.609   0.622   0.519   0.053   0.466   0.000   0.000  100.95   88.21    7.77   80.44    0.00    0.00 -99.000 -99.000 -99.000 
   17 079   148  10.00  13.90   6.60 -99.000   1.846   0.967   0.880   1.162   0.282   0.880   0.000   0.000  102.79   89.38    8.05   81.32    0.00    0.00 -99.000 -99.000 -99.000 
   17 080   149   9.20  13.60   6.20 -99.000   1.672   0.926   0.748   1.150   0.547   0.603   0.000   0.000  104.46   90.53    8.60   81.92    0.00    0.00 -99.000 -99.000 -99.000 
   17 081   150   4.40   7.80   4.60 -99.000   0.714   0.413   0.302   0.841   0.540   0.302   0.000   0.000  105.18   91.37    9.14   82.23    0.00    0.00 -99.000 -99.000 -99.000 
   17 082   151  10.80  12.40   4.40 -99.000   1.886   1.118   0.770   0.856   0.086   0.770   0.000   0.000  107.06   92.22    9.23   83.00    0.00    0.00 -99.000 -99.000 -99.000 
   17 083   152   5.80   9.40   3.50 -99.000   0.951   0.581   0.370   0.972   0.602   0.370   0.000   0.000  108.02   93.19    9.83   83.37    0.00    0.00 -99.000 -99.000 -99.000 
   17 084   153  17.40  12.70   3.10 -99.000   2.986   1.866   1.123   0.966   0.236   0.731   0.000   0.000  111.00   94.16   10.06   84.10    0.00    0.00 -99.000 -99.000 -99.000 
   17 085   154  17.00  11.50   0.30 -99.000   2.765   1.771   0.997   1.965   0.968   0.997   0.000   0.000  113.77   96.13   11.03   85.09    0.00    0.00 -99.000 -99.000 -99.000 
   17 086   155  20.40  15.70   0.40 -99.000   3.542   2.307   1.238   2.139   0.901   1.238   0.000   0.000  117.31   98.27   11.93   86.33    0.00    0.00 -99.000 -99.000 -99.000 
   17 087   156  19.70  18.10  -1.60 -99.000   3.463   2.305   1.161   3.015   1.853   1.161   0.000   0.000  120.77  101.28   13.79   87.49    0.00    0.00 -99.000 -99.000 -99.000 
   17 088   157  17.00  18.30   5.30 -99.000   3.195   2.176   1.021   3.489   2.467   1.021   0.000   0.000  123.97  104.77   16.25   88.51    0.00    0.00 -99.000 -99.000 -99.000 
   17 089   158  18.90  18.90   2.90 -99.000   3.488   2.439   1.053   2.763   1.802   0.961   0.000   0.000  127.45  107.53   18.06   89.47    0.00    0.00 -99.000 -99.000 -99.000 
   17 090   159  19.60  23.20   4.40 -99.000   3.882   2.772   1.114   2.350   2.166   0.184   0.000   0.000  131.33  109.88   20.22   89.66    0.00    0.00 -99.000 -99.000 -99.000 
   17 091   160  15.90  22.00   3.40 -99.000   3.062   2.239   0.827   3.236   3.083   0.153   0.000   0.000  134.40  113.12   23.31   89.81    0.00    0.00 -99.000 -99.000 -99.000 
   17 092   161  15.70  19.30   6.80 -99.000   3.000   2.232   0.771   2.496   2.368   0.128   0.000   0.000  137.40  115.61   25.67   89.94    0.00    0.00 -99.000 -99.000 -99.000 
   17 093   162  10.60  16.20   6.80 -99.000   1.935   1.464   0.474   1.600   1.498   0.102   0.000   0.000  139.33  117.21   27.17   90.04    0.00    0.00 -99.000 -99.000 -99.000 
   17 094   163  11.00  13.00   2.60 -99.000   1.837   1.408   0.431   1.167   0.736   0.431   0.000   0.000  141.17  118.38   27.91   90.47    0.00    0.00 -99.000 -99.000 -99.000 
   17 095   164  13.40  13.00   3.90 -99.000   2.266   1.750   0.518   1.097   0.579   0.518   0.000   0.000  143.43  119.48   28.49   90.99    0.00    0.00 -99.000 -99.000 -99.000 
   17 096   165  10.60   8.60   1.70 -99.000   1.625   1.267   0.361   0.960   0.598   0.361   0.000   0.000  145.06  120.44   29.09   91.35    0.00    0.00 -99.000 -99.000 -99.000 
   17 097   166  17.50  14.30   4.30 -99.000   3.024   2.368   0.661   0.910   0.250   0.661   0.000   0.000  148.08  121.35   29.33   92.01    0.00    0.00 -99.000 -99.000 -99.000 
   17 098   167  19.90  17.90   4.10 -99.000   3.615   2.855   0.764   1.614   0.850   0.764   0.000   0.000  151.70  122.96   30.18   92.78    0.00    0.00 -99.000 -99.000 -99.000 
   17 099   168  22.10  21.10   3.40 -99.000   4.167   3.323   0.848   2.344   1.496   0.848   0.000   0.000  155.87  125.31   31.68   93.63    0.00    0.00 -99.000 -99.000 -99.000 
   17 100   169  20.50  23.30   5.30 -99.000   4.044   3.259   0.790   2.644   2.237   0.407   0.000   0.000  159.91  127.95   33.92   94.03    0.00    0.00 -99.000 -99.000 -99.000 
   17 101   170  17.50  13.00   0.90 -99.000   2.841   2.311   0.534   2.429   2.365   0.063   0.000   0.000  162.75  130.38   36.28   94.10    0.00    0.00 -99.000 -99.000 -99.000 
   17 102   171  18.00  18.10   0.30 -99.000   3.143   2.564   0.583   0.782   0.726   0.057   0.000   0.000  165.89  131.16   37.01   94.15    0.00    0.00 -99.000 -99.000 -99.000 
   17 103   172  11.30  15.00   5.60 -99.000   1.984   1.628   0.359   1.489   1.439   0.050   0.000   0.000  167.88  132.65   38.45   94.20    0.00    0.00 -99.000 -99.000 -99.000 
   17 104   173  11.50  13.00   4.00 -99.000   1.926   1.589   0.339   0.612   0.564   0.048   0.000   0.000  169.80  133.26   39.01   94.25    0.00    0.00 -99.000 -99.000 -99.000 
   17 105   174  12.90  15.30   6.30 -99.000   2.288   1.897   0.394   0.492   0.447   0.045   0.000   0.000  172.09  133.75   39.46   94.30    0.00    0.00 -99.000 -99.000 -99.000 
   17 106   175   9.50   9.10   4.00 -99.000   1.493   1.245   0.250   0.841   0.591   0.250   0.000   0.000  173.58  134.59   40.05   94.55    0.00    0.00 -99.000 -99.000 -99.000 
   17 107   176   6.70   8.60   2.20 -99.000   1.024   0.857   0.169   0.332   0.163   0.169   0.000   0.000  174.61  134.93   40.21   94.71    0.00    0.00 -99.000 -99.000 -99.000 
   17 108   177  10.40   6.40   0.10 -99.000   1.498   1.257   0.243   0.387   0.144   0.243   0.000   0.000  176.11  135.31   40.36   94.96    0.00    0.00 -99.000 -99.000 -99.000 
   17 109   178  12.20   4.30   0.00 -99.000   1.219   1.025   0.196   0.329   0.133   0.196   0.000   0.000  177.33  135.64   40.49   95.15    0.00    0.00 -99.000 -99.000 -99.000 
   17 110   179  16.30   6.10  -2.60 -99.000   2.256   1.899   0.361   0.437   0.076   0.361   0.000   0.000  179.58  136.08   40.57   95.51    0.00    0.00 -99.000 -99.000 -99.000 
   17 111   180  20.80  11.80  -3.10 -99.000   3.169   2.671   0.504   0.710   0.207   0.504   0.000   0.000  182.75  136.79   40.77   96.02    0.00    0.00 -99.000 -99.000 -99.000 
   17 112   181   8.30  11.80   2.30 -99.000   1.342   1.134   0.210   0.967   0.758   0.210   0.000   0.000  184.09  137.76   41.53   96.23    0.00    0.00 -99.000 -99.000 -99.000 
   17 113   182  14.40   8.60  -2.30 -99.000   2.092   1.776   0.320   0.661   0.341   0.320   0.000   0.000  186.18  138.42   41.87   96.55    0.00    0.00 -99.000 -99.000 -99.000 
   17 114   183  25.30  15.90  -3.70 -99.000   4.095   3.482   0.619   0.953   0.334   0.619   0.000   0.000  190.28  139.37   42.20   97.17    0.00    0.00 -99.000 -99.000 -99.000 
   17 115   184   9.90  11.80   3.80 -99.000   1.625   1.384   0.243   1.736   1.493   0.243   0.000   0.000  191.90  141.11   43.70   97.41    0.00    0.00 -99.000 -99.000 -99.000 
   17 116   185   6.20   4.80   1.60 -99.000   0.696   0.593   0.104   0.440   0.336   0.104   0.000   0.000  192.60  141.55   44.03   97.51    0.00    0.00 -99.000 -99.000 -99.000 
   17 117   186   6.20   4.30   0.40 -99.000   0.622   0.529   0.094   0.139   0.045   0.094   0.000   0.000  193.22  141.69   44.08   97.61    0.00    0.00 -99.000 -99.000 -99.000 
   17 118   187   7.00   5.20   0.20 -99.000   0.987   0.839   0.149   0.197   0.047   0.149   0.000   0.000  194.21  141.88   44.13   97.76    0.00    0.00 -99.000 -99.000 -99.000 
   17 119   188  17.50  12.60   1.30 -99.000   2.841   2.416   0.429   0.504   0.075   0.429   0.000   0.000  197.05  142.39   44.20   98.19    0.00    0.00 -99.000 -99.000 -99.000 
   17 120   189  26.10  14.90   1.00 -99.000   4.372   3.729   0.649   1.313   0.663   0.649   0.000   0.000  201.42  143.70   44.86   98.84    0.00    0.00 -99.000 -99.000 -99.000 
   17 121   190  11.10  14.10   2.00 -99.000   1.853   1.584   0.272   1.472   1.199   0.272   0.000   0.000  203.28  145.17   46.06   99.11    0.00    0.00 -99.000 -99.000 -99.000 
   17 122   191  15.70  14.90   4.10 -99.000   2.717   2.326   0.395   0.988   0.593   0.395   0.000   0.000  205.99  146.16   46.66   99.50    0.00    0.00 -99.000 -99.000 -99.000 
   17 123   192  13.60  15.50   5.40 -99.000   2.402   2.062   0.344   1.079   0.735   0.344   0.000   0.000  208.40  147.24   47.39   99.85    0.00    0.00 -99.000 -99.000 -99.000 
   17 124   193  14.20  14.60   4.90 -99.000   2.459   2.117   0.346   1.010   0.665   0.346   0.000   0.000  210.86  148.25   48.05  100.19    0.00    0.00 -99.000 -99.000 -99.000 
   17 125   194  14.20  16.20   6.40 -99.000   2.555   2.205   0.353   0.950   0.597   0.353   0.000   0.000  213.41  149.20   48.65  100.55    0.00    0.00 -99.000 -99.000 -99.000 
   17 126   195  23.80  20.20   5.50 -99.000   4.489   3.889   0.606   1.285   0.678   0.606   0.000   0.000  217.90  150.48   49.33  101.15    0.00    0.00 -99.000 -99.000 -99.000 
   17 127   196   8.10  13.10   9.80 -99.000   1.437   1.250   0.189   1.782   1.593   0.189   0.000   0.000  219.34  152.26   50.92  101.34    0.00    0.00 -99.000 -99.000 -99.000 
   17 128   197   6.80  11.80   6.50 -99.000   1.149   0.990   0.161   0.287   0.126   0.161   0.000   0.000  220.49  152.55   51.05  101.50    0.00    0.00 -99.000 -99.000 -99.000 
   17 129   198  15.10  11.10   3.40 -99.000   2.445   2.092   0.357   0.507   0.150   0.357   0.000   0.000  222.93  153.06   51.20  101.86    0.00    0.00 -99.000 -99.000 -99.000 
   17 130   199  28.10  16.80   0.20 -99.000   4.807   4.106   0.708   1.007   0.298   0.708   0.000   0.000  227.74  154.07   51.50  102.57    0.00    0.00 -99.000 -99.000 -99.000 
   17 131   200  21.40  21.50   3.20 -99.000   4.031   3.457   0.579   1.745   1.166   0.579   0.000   0.000  231.77  155.81   52.66  103.15    0.00    0.00 -99.000 -99.000 -99.000 
   17 132   201  20.30  21.90  11.40 -99.000   4.132   3.551   0.586   1.926   1.340   0.586   0.000   0.000  235.90  157.74   54.00  103.73    0.00    0.00 -99.000 -99.000 -99.000 
   17 133   202  19.10  21.20   9.40 -99.000   3.785   3.253   0.536   1.427   0.891   0.536   0.000   0.000  239.69  159.16   54.89  104.27    0.00    0.00 -99.000 -99.000 -99.000 
   17 134   203  17.60  20.20   9.20 -99.000   3.436   2.949   0.490   1.362   0.872   0.490   0.000   0.000  243.12  160.52   55.77  104.76    0.00    0.00 -99.000 -99.000 -99.000 
   17 135   204  18.10  18.00   8.30 -99.000   3.411   2.929   0.486   1.214   0.728   0.486   0.000   0.000  246.53  161.74   56.49  105.24    0.00    0.00 -99.000 -99.000 -99.000 
   17 136   205  24.80  21.70   6.80 -99.000   4.847   4.169   0.684   1.260   0.577   0.684   0.000   0.000  251.38  163.00   57.07  105.93    0.00    0.00 -99.000 -99.000 -99.000 
   17 137   206  27.60  23.40   7.90 -99.000   5.572   4.736   0.842   1.999   1.157   0.842   0.000   0.000  256.95  165.00   58.23  106.77    0.00    0.00 -99.000 -99.000 -99.000 
   17 138   207  23.30  27.10   8.80 -99.000   4.970   4.181   0.793   2.141   1.347   0.793   0.000   0.000  261.92  167.14   59.58  107.56    0.00    0.00 -99.000 -99.000 -99.000 
   17 139   208  15.60  24.70   7.20 -99.000   3.188   2.657   0.535   2.087   1.552   0.535   0.000   0.000  265.11  169.23   61.13  108.10    0.00    0.00 -99.000 -99.000 -99.000 
   17 140   209  23.30  17.30   4.20 -99.000   4.194   3.462   0.737   1.816   1.079   0.737   0.000   0.000  269.30  171.04   62.21  108.83    0.00    0.00 -99.000 -99.000 -99.000 
   17 141   210  21.60  18.00   5.70 -99.000   3.984   3.277   0.712   1.454   0.742   0.712   0.000   0.000  273.29  172.49   62.95  109.55    0.00    0.00 -99.000 -99.000 -99.000 
   17 142   211  23.70  22.20   7.90 -99.000   4.723   3.887   0.841   1.550   0.709   0.841   0.000   0.000  278.01  174.04   63.66  110.39    0.00    0.00 -99.000 -99.000 -99.000 
   17 143   212  23.40  24.10   8.30 -99.000   4.793   3.950   0.848   1.955   1.107   0.848   0.000   0.000  282.80  176.00   64.76  111.24    0.00    0.00 -99.000 -99.000 -99.000 
   17 144   213  18.80  17.90  10.50 -99.000   3.615   2.980   0.639   1.871   1.318   0.553   0.000   0.000  286.42  177.87   66.08  111.79    0.00    0.00 -99.000 -99.000 -99.000 
   17 145   214  20.10  19.40   7.50 -99.000   3.838   3.164   0.678   1.154   0.477   0.678   0.000   0.000  290.25  179.02   66.56  112.47    0.00    0.00 -99.000 -99.000 -99.000 
   17 146   215  29.30  22.70   5.90 -99.000   5.762   4.763   1.006   1.892   0.887   1.006   0.000   0.000  296.02  180.92   67.45  113.47    0.00    0.00 -99.000 -99.000 -99.000 
   17 147   216  29.60  24.90   8.00 -99.000   6.093   5.063   1.036   2.948   1.911   1.036   0.000   0.000  302.11  183.86   69.36  114.51    0.00    0.00 -99.000 -99.000 -99.000 
   17 148   217  29.60  27.40   9.00 -99.000   6.331   5.288   1.049   3.266   2.217   1.049   0.000   0.000  308.44  187.13   71.57  115.56    0.00    0.00 -99.000 -99.000 -99.000 
   17 149   218  27.20  29.70  10.10 -99.000   6.027   5.057   0.976   3.565   2.590   0.976   0.000   0.000  314.47  190.70   74.16  116.53    0.00    0.00 -99.000 -99.000 -99.000 
   17 150   219  25.10  28.70  16.10 -99.000   5.761   4.796   0.970   3.751   2.801   0.950   0.000   0.000  320.23  194.45   76.96  117.48    0.00    0.00 -99.000 -99.000 -99.000 
   17 151   220  23.90  25.30  15.70 -99.000   5.281   4.372   0.914   3.062   2.324   0.739   0.000   0.000  325.51  197.51   79.29  118.22    0.00    0.00 -99.000 -99.000 -99.000 
   17 152   221  23.60  25.90  13.40 -99.000   5.156   4.248   0.913   3.531   2.618   0.913   0.000   0.000  330.67  201.04   81.91  119.13    0.00    0.00 -99.000 -99.000 -99.000 
   17 153   222  23.30  26.50  11.70 -99.000   5.057   4.148   0.914   4.884   3.971   0.914   0.000   0.000  335.72  205.92   85.88  120.05    0.00    0.00 -99.000 -99.000 -99.000 
   17 154   223  25.40  27.80  12.50 -99.000   5.633   4.601   1.037   5.803   4.766   1.037   0.000   0.000  341.36  211.73   90.64  121.09    0.00    0.00 -99.000 -99.000 -99.000 
   17 155   224  12.90  19.10  10.00 -99.000   2.523   2.052   0.474   5.825   5.351   0.474   0.000   0.000  343.88  217.55   95.99  121.56    0.00    0.00 -99.000 -99.000 -99.000 
   17 156   225  14.50  21.30   9.60 -99.000   2.907   2.357   0.553   2.260   1.706   0.553   0.000   0.000  346.79  219.81   97.70  122.11    0.00    0.00 -99.000 -99.000 -99.000 
   17 157   226   7.60  16.90   8.00 -99.000   1.415   1.145   0.272   2.803   2.531   0.272   0.000   0.000  348.20  222.62  100.23  122.39    0.00    0.00 -99.000 -99.000 -99.000 
   17 158   227  21.50  15.00   5.20 -99.000   3.800   3.068   0.737   1.798   1.061   0.737   0.000   0.000  352.00  224.41  101.29  123.12    0.00    0.00 -99.000 -99.000 -99.000 
   17 159   228  26.40  22.20   3.70 -99.000   5.092   4.104   0.994   2.890   1.896   0.994   0.000   0.000  357.10  227.30  103.19  124.12    0.00    0.00 -99.000 -99.000 -99.000 
   17 160   229  21.60  24.90   7.20 -99.000   4.449   3.578   0.876   6.203   5.327   0.876   0.000   0.000  361.55  233.51  108.51  124.99    0.00    0.00 -99.000 -99.000 -99.000 
   17 161   230  27.40  22.00  10.10 -99.000   5.587   4.481   1.112   6.347   5.235   1.112   0.000   0.000  367.13  239.85  113.75  126.10    0.00    0.00 -99.000 -99.000 -99.000 
   17 162   231  29.70  26.30   8.00 -99.000   6.270   5.028   1.248   5.076   3.828   1.248   0.000   0.000  373.40  244.93  117.58  127.35    0.00    0.00 -99.000 -99.000 -99.000 
   17 163   232  20.10  26.50  11.40 -99.000   4.371   3.488   0.887   7.737   6.850   0.887   0.000   0.000  377.77  252.67  124.43  128.24    0.00    0.00 -99.000 -99.000 -99.000 
   17 164   233  29.20  24.10  11.80 -99.000   6.183   4.908   1.281   5.969   4.689   1.281   0.000   0.000  383.96  258.64  129.12  129.52    0.00    0.00 -99.000 -99.000 -99.000 
   17 165   234  27.00  24.70  11.00 -99.000   5.719   4.513   1.212   5.633   4.667   0.965   0.000   0.000  389.68  264.27  133.78  130.49    0.00    0.00 -99.000 -99.000 -99.000 
   17 166   235  27.00  28.90   9.60 -99.000   5.951   4.668   1.288   6.178   4.889   1.288   0.000   0.000  395.63  270.45  138.67  131.77    0.00    0.00 -99.000 -99.000 -99.000 
   17 167   236  25.10  23.70  11.70 -99.000   5.298   4.131   1.172   8.192   7.021   1.172   0.000   0.000  400.92  278.64  145.69  132.95    0.00    0.00 -99.000 -99.000 -99.000 
   17 168   237  23.60  20.40  10.20 -99.000   4.709   3.648   1.065   5.046   4.019   1.027   0.000   0.000  405.63  283.69  149.71  133.97    0.00    0.00 -99.000 -99.000 -99.000 
   17 169   238  28.30  22.90   7.40 -99.000   5.692   4.382   1.315   4.213   2.897   1.315   0.000   0.000  411.33  287.90  152.61  135.29    0.00    0.00 -99.000 -99.000 -99.000 
   17 170   239  30.20  28.20  10.10 -99.000   6.637   5.080   1.562   5.014   4.927   0.087   0.000   0.000  417.96  292.91  157.54  135.38    0.00    0.00 -99.000 -99.000 -99.000 
   17 171   240  25.90  30.60  12.60 -99.000   5.973   4.546   1.432   6.975   6.905   0.070   0.000   0.000  423.94  299.89  164.44  135.45    0.00    0.00 -99.000 -99.000 -99.000 
   17 172   241  22.60  30.90  14.90 -99.000   5.328   4.025   1.306   6.760   6.407   0.353   0.000   0.000  429.26  306.65  170.85  135.80    0.00    0.00 -99.000 -99.000 -99.000 
   17 173   242  25.90  31.30  14.00 -99.000   6.095   4.567   1.533   4.740   4.704   0.036   0.000   0.000  435.36  311.39  175.55  135.83    0.00    0.00 -99.000 -99.000 -99.000 
   17 174   243  23.70  29.60  15.40 -99.000   5.558   4.163   1.400   6.594   5.195   1.400   0.000   0.000  440.92  317.98  180.75  137.23    0.00    0.00 -99.000 -99.000 -99.000 
   17 175   244  24.80  26.70  14.40 -99.000   5.565   4.164   1.406   5.592   4.186   1.406   0.000   0.000  446.48  323.57  184.93  138.64    0.00    0.00 -99.000 -99.000 -99.000 
   17 176   245  15.30  22.80  12.30 -99.000   3.214   2.400   0.817   4.317   3.743   0.575   0.000   0.000  449.70  327.89  188.67  139.22    0.00    0.00 -99.000 -99.000 -99.000 
   17 177   246  28.90  29.90  13.50 -99.000   6.680   4.976   1.709   3.069   2.059   1.010   0.000   0.000  456.38  330.96  190.73  140.23    0.00    0.00 -99.000 -99.000 -99.000 
   17 178   247  20.10  26.40  16.50 -99.000   4.584   3.406   1.182   6.820   5.638   1.182   0.000   0.000  460.96  337.78  196.37  141.41    0.00    0.00 -99.000 -99.000 -99.000 
   17 179   248  20.10  25.80  15.50 -99.000   4.534   3.356   1.182   4.084   2.903   1.182   0.000   0.000  465.49  341.86  199.27  142.59    0.00    0.00 -99.000 -99.000 -99.000 
   17 180   249  17.60  22.80  13.80 -99.000   3.787   2.791   1.000   4.012   3.012   1.000   0.000   0.000  469.28  345.87  202.29  143.59    0.00    0.00 -99.000 -99.000 -99.000 
   17 181   250  25.70  22.00  13.30 -99.000   5.447   3.993   1.459   3.684   2.225   1.459   0.000   0.000  474.73  349.56  204.51  145.05    0.00    0.00 -99.000 -99.000 -99.000 
   17 182   251  19.00  21.30  12.80 -99.000   3.966   2.893   1.077   3.693   2.616   1.077   0.000   0.000  478.69  353.25  207.13  146.12    0.00    0.00 -99.000 -99.000 -99.000 
   17 183   252  12.10  19.20  13.00 -99.000   2.460   1.784   0.678   2.702   2.024   0.678   0.000   0.000  481.15  355.95  209.15  146.80    0.00    0.00 -99.000 -99.000 -99.000 
   17 184   253  20.90  22.70  12.50 -99.000   4.425   3.189   1.239   2.277   1.038   1.239   0.000   0.000  485.58  358.23  210.19  148.04    0.00    0.00 -99.000 -99.000 -99.000 
   17 185   254  23.40  25.00  11.70 -99.000   5.060   3.625   1.440   3.848   2.566   1.283   0.000   0.000  490.64  362.08  212.75  149.32    0.00    0.00 -99.000 -99.000 -99.000 
   17 186   255  28.30  29.20  10.50 -99.000   6.372   4.529   1.847   4.614   3.622   0.992   0.000   0.000  497.01  366.69  216.38  150.32    0.00    0.00 -99.000 -99.000 -99.000 
   17 187   256  27.80  31.30  12.50 -99.000   6.512   4.589   1.928   5.715   5.602   0.113   0.000   0.000  503.52  372.41  221.98  150.43    0.00    0.00 -99.000 -99.000 -99.000 
   17 188   257  19.00  29.40  15.40 -99.000   4.458   3.109   1.352   5.178   4.912   0.266   0.000   0.000  507.98  377.59  226.89  150.70    0.00    0.00 -99.000 -99.000 -99.000 
   17 189   258  21.60  30.30  16.40 -99.000   5.168   3.560   1.612   3.428   2.703   0.725   0.000   0.000  513.15  381.01  229.59  151.42    0.00    0.00 -99.000 -99.000 -99.000 
   17 190   259  17.70  27.90  16.70 -99.000   4.133   2.805   1.331   2.746   2.739   0.007   0.000   0.000  517.28  383.76  232.33  151.43    0.00    0.00 -99.000 -99.000 -99.000 
   17 191   260  17.30  26.50  15.40 -99.000   4.012   2.674   1.341   3.848   2.507   1.341   0.000   0.000  521.29  387.61  234.84  152.77    0.00    0.00 -99.000 -99.000 -99.000 
   17 192   261  19.90  23.60  14.70 -99.000   4.428   2.898   1.533   3.853   2.320   1.533   0.000   0.000  525.72  391.46  237.16  154.30    0.00    0.00 -99.000 -99.000 -99.000 
   17 193   262  16.00  25.20  13.30 -99.000   3.592   2.306   1.289   3.172   1.883   1.289   0.000   0.000  529.31  394.63  239.04  155.59    0.00    0.00 -99.000 -99.000 -99.000 
   17 194   263  28.60  21.60   9.90 -99.000   5.975   3.762   2.218   4.334   2.116   2.218   0.000   0.000  535.29  398.97  241.16  157.81    0.00    0.00 -99.000 -99.000 -99.000 
   17 195   264  17.40  20.80   9.70 -99.000   3.582   2.206   1.378   3.882   2.504   1.378   0.000   0.000  538.87  402.85  243.66  159.19    0.00    0.00 -99.000 -99.000 -99.000 
   17 196   265  18.60  19.60  11.20 -99.000   3.856   2.329   1.529   3.169   1.639   1.529   0.000   0.000  542.72  406.02  245.30  160.72    0.00    0.00 -99.000 -99.000 -99.000 
   17 197   266  25.50  23.30   8.30 -99.000   5.394   3.193   2.206   3.463   1.257   2.206   0.000   0.000  548.12  409.48  246.56  162.92    0.00    0.00 -99.000 -99.000 -99.000 
   17 198   267  22.40  26.00  10.60 -99.000   4.989   2.886   2.106   4.360   2.742   1.618   0.000   0.000  553.11  413.84  249.30  164.54    0.00    0.00 -99.000 -99.000 -99.000 
   17 199   268  26.10  29.30  11.90 -99.000   6.105   3.443   2.665   5.429   2.764   2.665   0.000   0.000  559.21  419.27  252.06  167.21    0.00    0.00 -99.000 -99.000 -99.000 
   17 200   269  26.80  32.00  15.00 -99.000   6.604   3.605   3.003   3.778   3.438   0.340   0.000   0.000  565.82  423.05  255.50  167.55    0.00    0.00 -99.000 -99.000 -99.000 
   17 201   270  14.70  27.50  14.20 -99.000   3.431   1.799   1.635   3.546   3.258   0.288   0.000   0.000  569.25  426.59  258.76  167.83    0.00    0.00 -99.000 -99.000 -99.000 
   17 202   271  25.40  28.50  13.00 -99.000   5.969   2.972   3.000   2.152   1.668   0.485   0.000   0.000  575.22  428.75  260.43  168.32    0.00    0.00 -99.000 -99.000 -99.000 
   17 203   272  20.90  28.60  15.60 -99.000   5.033   2.372   2.664   2.641   2.520   0.122   0.000   0.000  580.25  431.39  262.95  168.44    0.00    0.00 -99.000 -99.000 -99.000 
   17 204   273  14.90  23.00  15.70 -99.000   3.379   1.495   1.886   2.403   1.807   0.597   0.000   0.000  583.63  433.79  264.75  169.04    0.00    0.00 -99.000 -99.000 -99.000 
   17 205   274   8.90  18.10  11.40 -99.000   1.837   0.751   1.086   1.358   0.689   0.669   0.000   0.000  585.47  435.15  265.44  169.71    0.00    0.00 -99.000 -99.000 -99.000 
   17 206   275  12.60  17.90  11.20 -99.000   2.626   0.989   1.638   1.977   0.339   1.638   0.000   0.000  588.09  437.13  265.78  171.34    0.00    0.00 -99.000 -99.000 -99.000 
   17 207   276   6.10  13.90  12.20 -99.000   1.241   0.433   0.809   1.190   0.382   0.809   0.000   0.000  589.33  438.32  266.16  172.15    0.00    0.00 -99.000 -99.000 -99.000 
   17 208   277  10.70  19.00  11.50 -99.000   2.342   0.738   1.605   1.653   0.048   1.605   0.000   0.000  591.68  439.97  266.21  173.76    0.00    0.00 -99.000 -99.000 -99.000 
   17 209   278  18.80  21.10  14.00 -99.000   4.338   1.239   3.100   3.424   0.323   3.100   0.000   0.000  596.01  443.39  266.53  176.86    0.00    0.00 -99.000 -99.000 -99.000 
   17 210   279  24.20  27.30  12.40 -99.000   5.904   1.482   4.424   3.601   0.429   3.172   0.000   0.000  601.92  446.99  266.96  180.03    0.00    0.00 -99.000 -99.000 -99.000 
   17 211   280  22.90  32.00  14.20 -99.000   5.965   1.249   4.717   3.845   0.926   2.919   0.000   0.000  607.88  450.84  267.89  182.95    0.00    0.00 -99.000 -99.000 -99.000 
   17 212   281  21.00  30.40  15.50 -99.000   5.465   0.865   4.601   2.518   0.796   1.722   0.000   0.000  613.35  453.36  268.68  184.67    0.00    0.00 -99.000 -99.000 -99.000 
   17 213   282  23.90  33.80  15.80 -99.000   6.508   0.622   5.887   2.315   0.386   1.929   0.000   0.000  619.86  455.67  269.07  186.60    0.00    0.00 -99.000 -99.000 -99.000 
   17 214   283  22.00  30.60  17.40 -99.000   6.067   0.153   5.914   4.427   0.018   4.409   0.000   0.000  625.92  460.10  269.09  191.01    0.00    0.00 -99.000 -99.000 -99.000 
   17 215   284  14.30  30.40  16.90 -99.000   3.850   0.097   3.753   3.629   0.018   3.611   0.000   0.000  629.77  463.73  269.11  194.62    0.00    0.00 -99.000 -99.000 -99.000 
   17 216   285  15.10  28.30  18.70 -99.000   4.075   0.103   3.972   2.974   0.018   2.956   0.000   0.000  633.85  466.70  269.12  197.58    0.00    0.00 -99.000 -99.000 -99.000 
   17 217   286  22.20  29.60  17.40 -99.000   5.954   0.150   5.804   2.312   0.018   2.294   0.000   0.000  639.80  469.01  269.14  199.87    0.00    0.00 -99.000 -99.000 -99.000 
   17 218   287  13.10  20.10  12.10 -99.000   2.980   0.075   2.905   1.380   0.018   1.362   0.000   0.000  642.78  470.39  269.16  201.23    0.00    0.00 -99.000 -99.000 -99.000 
   17 219   288  23.50  23.30   9.30 -99.000   5.422   0.137   5.285   1.090   0.018   1.072   0.000   0.000  648.21  471.48  269.18  202.30    0.00    0.00 -99.000 -99.000 -99.000 

*DSSAT Cropping System Model Ver. 4.8.5.000 -release  MAR 01, 2026 09:34:40

*RUN   2        : 2                         WHAPS048 TUDU1701    2
 MODEL          : WHAPS048 - Wheat
 EXPERIMENT     : TUDU1701 WH
 DATA PATH      :
 TREATMENT  2   : 2                         WHAPS048
  
@YEAR DOY   DAS   SRAA  TMAXA  TMINA    REFA    EOAA    EOPA    EOSA    ETAA    EPAA    ESAA    EFAA    EMAA    EOAC    ETAC    EPAC    ESAC    EFAC    EMAC    KCAA    KBSA    KEAA
   16 298     1   7.20  17.50   7.00 -99.000   1.543   0.000   1.543   1.543   0.000   1.543   0.000   0.000    1.54    1.54    0.00    1.54    0.00    0.00 -99.000 -99.000 -99.000 
   16 299     2   3.20  14.50   7.10 -99.000   0.660   0.000   0.660   0.660   0.000   0.660   0.000   0.000    2.20    2.20    0.00    2.20    0.00    0.00 -99.000 -99.000 -99.000 
   16 300     3   4.50  12.90   3.90 -99.000   0.878   0.000   0.878   0.878   0.000   0.878   0.000   0.000    3.08    3.08    0.00    3.08    0.00    0.00 -99.000 -99.000 -99.000 
   16 301     4   7.60  11.10   1.40 -99.000   1.395   0.000   1.395   1.395   0.000   1.395   0.000   0.000    4.48    4.48    0.00    4.48    0.00    0.00 -99.000 -99.000 -99.000 
   16 302     5   8.00  11.90   0.60 -99.000   1.466   0.000   1.466   1.466   0.000   1.466   0.000   0.000    5.94    5.94    0.00    5.94    0.00    0.00 -99.000 -99.000 -99.000 
   16 303     6   5.10  11.80   2.20 -99.000   0.943   0.000   0.943   0.943   0.000   0.943   0.000   0.000    6.88    6.88    0.00    6.88    0.00    0.00 -99.000 -99.000 -99.000 
   16 304     7   8.50  11.60   0.70 -99.000   1.537   0.039   1.537   1.306   0.000   1.306   0.000   0.000    8.42    8.19    0.00    8.19    0.00    0.00 -99.000 -99.000 -99.000 
   16 305     8   8.60  10.40   0.30 -99.000   1.509   0.000   1.509   1.509   0.000   1.509   0.000   0.000    9.93    9.70    0.00    9.70    0.00    0.00 -99.000 -99.000 -99.000 
   16 306     9   5.60   6.10   0.50 -99.000   0.907   0.023   0.907   0.737   0.000   0.737   0.000   0.000   10.84   10.44    0.00   10.44    0.00    0.00 -99.000 -99.000 -99.000 
   16 307    10   3.40   9.00   2.80 -99.000   0.593   0.015   0.593   0.000   0.000   0.000   0.000   0.000   11.43   10.44    0.00   10.44    0.00    0.00 -99.000 -99.000 -99.000 
   16 308    11   5.90   8.20  -1.90 -99.000   0.965   0.024   0.965   0.896   0.000   0.896   0.000   0.000   12.40   11.33    0.00   11.33    0.00    0.00 -99.000 -99.000 -99.000 
   16 309    12   6.50   8.50  -2.70 -99.000   1.054   0.027   1.054   0.000   0.000   0.000   0.000   0.000   13.45   11.33    0.00   11.33    0.00    0.00 -99.000 -99.000 -99.000 
   16 310    13   3.60  12.00   2.90 -99.000   0.661   0.017   0.661   0.199   0.000   0.199   0.000   0.000   14.11   11.53    0.00   11.53    0.00    0.00 -99.000 -99.000 -99.000 
   16 311    14   2.30   6.50   2.40 -99.000   0.397   0.000   0.397   0.397   0.000   0.397   0.000   0.000   14.51   11.93    0.00   11.93    0.00    0.00 -99.000 -99.000 -99.000 
   16 312    15   4.50   3.70  -1.60 -99.000   0.461   0.005   0.456   0.461   0.005   0.456   0.000   0.000   14.97   12.39    0.01   12.38    0.00    0.00 -99.000 -99.000 -99.000 
   16 313    16   4.40   3.80  -1.00 -99.000   0.459   0.005   0.454   0.455   0.001   0.454   0.000   0.000   15.43   12.85    0.01   12.84    0.00    0.00 -99.000 -99.000 -99.000 
   16 314    17   5.90   4.90   0.20 -99.000   0.775   0.009   0.766   0.767   0.001   0.766   0.000   0.000   16.20   13.61    0.01   13.60    0.00    0.00 -99.000 -99.000 -99.000 
   16 315    18   3.70   6.10   2.90 -99.000   0.641   0.008   0.633   0.635   0.002   0.633   0.000   0.000   16.84   14.25    0.01   14.24    0.00    0.00 -99.000 -99.000 -99.000 
   16 316    19   2.70   5.00   1.40 -99.000   0.454   0.006   0.448   0.449   0.001   0.448   0.000   0.000   17.30   14.70    0.01   14.69    0.00    0.00 -99.000 -99.000 -99.000 
   16 317    20   3.60   3.50  -1.80 -99.000   0.353   0.005   0.348   0.349   0.001   0.348   0.000   0.000   17.65   15.04    0.01   15.03    0.00    0.00 -99.000 -99.000 -99.000 
   16 318    21   4.40   1.80  -2.90 -99.000   0.300   0.004   0.296   0.297   0.001   0.296   0.000   0.000   17.95   15.34    0.01   15.33    0.00    0.00 -99.000 -99.000 -99.000 
   16 319    22   5.80   2.50  -3.80 -99.000   0.447   0.006   0.441   0.442   0.001   0.441   0.000   0.000   18.40   15.78    0.01   15.77    0.00    0.00 -99.000 -99.000 -99.000 
   16 320    23   3.80   5.30  -1.60 -99.000   0.610   0.009   0.601   0.602   0.001   0.601   0.000   0.000   19.01   16.39    0.01   16.37    0.00    0.00 -99.000 -99.000 -99.000 
   16 321    24   1.90   9.00   5.30 -99.000   0.356   0.005   0.351   0.353   0.002   0.351   0.000   0.000   19.36   16.74    0.02   16.72    0.00    0.00 -99.000 -99.000 -99.000 
   16 322    25   3.80  10.80   4.30 -99.000   0.731   0.011   0.720   0.721   0.001   0.720   0.000   0.000   20.10   17.46    0.02   17.44    0.00    0.00 -99.000 -99.000 -99.000 
   16 323    26   2.40  12.90   3.40 -99.000   0.469   0.008   0.461   0.466   0.005   0.461   0.000   0.000   20.56   17.93    0.02   17.90    0.00    0.00 -99.000 -99.000 -99.000 
   16 324    27   1.50   7.20   0.00 -99.000   0.258   0.004   0.254   0.259   0.005   0.254   0.000   0.000   20.82   18.18    0.03   18.16    0.00    0.00 -99.000 -99.000 -99.000 
   16 325    28   6.00   9.00   0.10 -99.000   1.068   0.018   1.050   1.051   0.001   1.050   0.000   0.000   21.89   19.24    0.03   19.21    0.00    0.00 -99.000 -99.000 -99.000 
   16 326    29   4.20  15.10   1.60 -99.000   0.830   0.016   0.814   0.822   0.008   0.814   0.000   0.000   22.72   20.06    0.04   20.02    0.00    0.00 -99.000 -99.000 -99.000 
   16 327    30   3.00  13.40   2.70 -99.000   0.581   0.012   0.569   0.585   0.017   0.569   0.000   0.000   23.30   20.64    0.05   20.59    0.00    0.00 -99.000 -99.000 -99.000 
   16 328    31   4.30  11.30   0.90 -99.000   0.787   0.017   0.770   0.779   0.010   0.770   0.000   0.000   24.09   21.42    0.06   21.36    0.00    0.00 -99.000 -99.000 -99.000 
   16 329    32   2.30   5.90   4.90 -99.000   0.400   0.009   0.391   0.402   0.011   0.391   0.000   0.000   24.49   21.83    0.07   21.75    0.00    0.00 -99.000 -99.000 -99.000 
   16 330    33   2.60   7.70   4.80 -99.000   0.465   0.011   0.454   0.455   0.000   0.454   0.000   0.000   24.95   22.28    0.08   22.20    0.00    0.00 -99.000 -99.000 -99.000 
   16 331    34   1.90   6.50   5.10 -99.000   0.334   0.008   0.325   0.327   0.002   0.325   0.000   0.000   25.29   22.61    0.08   22.53    0.00    0.00 -99.000 -99.000 -99.000 
   16 332    35   3.40   7.00  -0.80 -99.000   0.562   0.014   0.547   0.548   0.001   0.547   0.000   0.000   25.85   23.15    0.08   23.08    0.00    0.00 -99.000 -99.000 -99.000 
   16 333    36   5.40   1.10  -3.50 -99.000   0.310   0.008   0.302   0.307   0.005   0.302   0.000   0.000   26.16   23.46    0.08   23.38    0.00    0.00 -99.000 -99.000 -99.000 
   16 334    37   6.50   0.50  -6.70 -99.000   0.315   0.009   0.307   0.308   0.001   0.307   0.000   0.000   26.47   23.77    0.08   23.69    0.00    0.00 -99.000 -99.000 -99.000 
   16 335    38   5.70   2.70  -7.80 -99.000   0.424   0.011   0.413   0.414   0.001   0.413   0.000   0.000   26.90   24.18    0.08   24.10    0.00    0.00 -99.000 -99.000 -99.000 
   16 336    39   3.40   4.60  -0.10 -99.000   0.410   0.011   0.399   0.323   0.001   0.321   0.000   0.000   27.31   24.51    0.09   24.42    0.00    0.00 -99.000 -99.000 -99.000 
   16 337    40   3.00   5.00  -0.60 -99.000   0.475   0.013   0.462   0.464   0.002   0.462   0.000   0.000   27.78   24.97    0.09   24.88    0.00    0.00 -99.000 -99.000 -99.000 
   16 338    41   5.50  -0.60  -3.90 -99.000   0.222   0.006   0.216   0.219   0.003   0.216   0.000   0.000   28.01   25.19    0.09   25.10    0.00    0.00 -99.000 -99.000 -99.000 
   16 339    42   3.70  -0.70  -7.30 -99.000   0.139   0.004   0.135   0.136   0.000   0.135   0.000   0.000   28.14   25.32    0.09   25.23    0.00    0.00 -99.000 -99.000 -99.000 
   16 340    43   2.70  -2.00  -3.80 -99.000   0.082   0.002   0.080   0.081   0.001   0.080   0.000   0.000   28.23   25.40    0.09   25.31    0.00    0.00 -99.000 -99.000 -99.000 
   16 341    44   4.30  -0.80  -5.20 -99.000   0.163   0.005   0.159   0.132   0.000   0.132   0.000   0.000   28.39   25.54    0.09   25.44    0.00    0.00 -99.000 -99.000 -99.000 
   16 342    45   3.30  -1.90  -3.50 -99.000   0.103   0.003   0.100   0.101   0.001   0.100   0.000   0.000   28.49   25.64    0.09   25.54    0.00    0.00 -99.000 -99.000 -99.000 
   16 343    46   5.00   3.90  -4.50 -99.000   0.494   0.014   0.480   0.480   0.000   0.480   0.000   0.000   28.99   26.12    0.09   26.02    0.00    0.00 -99.000 -99.000 -99.000 
   16 344    47   4.20   7.90  -4.20 -99.000   0.670   0.019   0.651   0.652   0.001   0.651   0.000   0.000   29.66   26.77    0.09   26.67    0.00    0.00 -99.000 -99.000 -99.000 
   16 345    48   5.50   8.20  -2.80 -99.000   0.895   0.026   0.869   0.871   0.002   0.869   0.000   0.000   30.55   27.64    0.10   27.54    0.00    0.00 -99.000 -99.000 -99.000 
   16 346    49   2.00   5.20  -3.80 -99.000   0.302   0.009   0.293   0.306   0.013   0.293   0.000   0.000   30.85   27.95    0.11   27.84    0.00    0.00 -99.000 -99.000 -99.000 
   16 347    50   2.40   4.80  -1.40 -99.000   0.295   0.009   0.285   0.288   0.003   0.285   0.000   0.000   31.15   28.23    0.11   28.12    0.00    0.00 -99.000 -99.000 -99.000 
   16 348    51   4.10   5.50  -3.50 -99.000   0.629   0.021   0.608   0.611   0.002   0.608   0.000   0.000   31.78   28.84    0.11   28.73    0.00    0.00 -99.000 -99.000 -99.000 
   16 349    52   3.70   8.30  -0.10 -99.000   0.622   0.021   0.601   0.607   0.006   0.601   0.000   0.000   32.40   29.45    0.12   29.33    0.00    0.00 -99.000 -99.000 -99.000 
   16 350    53   1.80   4.20   0.80 -99.000   0.201   0.007   0.194   0.203   0.009   0.194   0.000   0.000   32.60   29.65    0.13   29.52    0.00    0.00 -99.000 -99.000 -99.000 
   16 351    54   1.60   0.70  -1.70 -99.000   0.086   0.003   0.083   0.084   0.001   0.083   0.000   0.000   32.69   29.74    0.13   29.61    0.00    0.00 -99.000 -99.000 -99.000 
   16 352    55   2.70  -0.90  -2.20 -99.000   0.104   0.004   0.100   0.101   0.000   0.100   0.000   0.000   32.79   29.84    0.13   29.71    0.00    0.00 -99.000 -99.000 -99.000 
   16 353    56   1.90   1.20  -1.10 -99.000   0.113   0.004   0.109   0.109   0.000   0.109   0.000   0.000   32.90   29.95    0.13   29.82    0.00    0.00 -99.000 -99.000 -99.000 
   16 354    57   2.20   1.30  -1.10 -99.000   0.134   0.005   0.129   0.130   0.000   0.129   0.000   0.000   33.04   30.08    0.13   29.95    0.00    0.00 -99.000 -99.000 -99.000 
   16 355    58   2.30  -0.80  -2.40 -99.000   0.090   0.003   0.087   0.087   0.000   0.087   0.000   0.000   33.13   30.17    0.13   30.03    0.00    0.00 -99.000 -99.000 -99.000 
   16 356    59   1.60  -1.80  -2.60 -99.000   0.051   0.002   0.049   0.049   0.000   0.049   0.000   0.000   33.18   30.21    0.13   30.08    0.00    0.00 -99.000 -99.000 -99.000 
   16 357    60   3.00  -1.60  -3.20 -99.000   0.099   0.004   0.095   0.095   0.000   0.095   0.000   0.000   33.28   30.31    0.13   30.18    0.00    0.00 -99.000 -99.000 -99.000 
   16 358    61   2.60   2.40  -2.70 -99.000   0.193   0.007   0.186   0.186   0.000   0.186   0.000   0.000   33.47   30.50    0.13   30.36    0.00    0.00 -99.000 -99.000 -99.000 
   16 359    62   2.00   6.70   0.40 -99.000   0.328   0.012   0.316   0.317   0.001   0.316   0.000   0.000   33.80   30.81    0.13   30.68    0.00    0.00 -99.000 -99.000 -99.000 
   16 360    63   2.40   8.40   4.50 -99.000   0.426   0.016   0.410   0.413   0.003   0.410   0.000   0.000   34.22   31.23    0.14   31.09    0.00    0.00 -99.000 -99.000 -99.000 
   16 361    64   2.90  10.70   2.10 -99.000   0.520   0.020   0.500   0.503   0.004   0.500   0.000   0.000   34.74   31.73    0.14   31.59    0.00    0.00 -99.000 -99.000 -99.000 
   16 362    65   3.40   4.10   0.10 -99.000   0.369   0.015   0.354   0.365   0.011   0.354   0.000   0.000   35.11   32.10    0.15   31.94    0.00    0.00 -99.000 -99.000 -99.000 
   16 363    66   2.80   3.90  -0.70 -99.000   0.289   0.012   0.276   0.279   0.003   0.276   0.000   0.000   35.40   32.37    0.16   32.22    0.00    0.00 -99.000 -99.000 -99.000 
   16 364    67   4.40   4.00  -3.50 -99.000   0.445   0.019   0.426   0.429   0.003   0.426   0.000   0.000   35.85   32.80    0.16   32.65    0.00    0.00 -99.000 -99.000 -99.000 
   16 365    68   3.70   2.40  -6.30 -99.000   0.261   0.011   0.250   0.255   0.005   0.250   0.000   0.000   36.11   33.06    0.16   32.89    0.00    0.00 -99.000 -99.000 -99.000 
   16 366    69   3.50  -3.10  -5.90 -99.000   0.081   0.004   0.078   0.079   0.001   0.078   0.000   0.000   36.19   33.14    0.16   32.97    0.00    0.00 -99.000 -99.000 -99.000 
   17 001    70   4.50  -2.40  -8.70 -99.000   0.115   0.005   0.110   0.111   0.000   0.110   0.000   0.000   36.30   33.25    0.17   33.08    0.00    0.00 -99.000 -99.000 -99.000 
   17 002    71   1.40  -0.60  -9.70 -99.000   0.051   0.002   0.049   0.049   0.001   0.049   0.000   0.000   36.36   33.30    0.17   33.13    0.00    0.00 -99.000 -99.000 -99.000 
   17 003    72   2.90  -0.60  -2.80 -99.000   0.117   0.005   0.112   0.113   0.001   0.112   0.000   0.000   36.47   33.41    0.17   33.24    0.00    0.00 -99.000 -99.000 -99.000 
   17 004    73   1.70   0.90  -1.40 -99.000   0.095   0.004   0.091   0.091   0.000   0.091   0.000   0.000   36.57   33.50    0.17   33.33    0.00    0.00 -99.000 -99.000 -99.000 
   17 005    74   2.80  -0.10  -8.40 -99.000   0.115   0.005   0.110   0.110   0.000   0.110   0.000   0.000   36.68   33.61    0.17   33.44    0.00    0.00 -99.000 -99.000 -99.000 
   17 006    75   4.70  -7.10 -18.00 -99.000   0.038   0.002   0.036   0.037   0.001   0.036   0.000   0.000   36.72   33.65    0.17   33.48    0.00    0.00 -99.000 -99.000 -99.000 
   17 007    76   2.70  -5.60 -18.00 -99.000   0.030   0.001   0.028   0.029   0.001   0.028   0.000   0.000   36.75   33.68    0.17   33.51    0.00    0.00 -99.000 -99.000 -99.000 
   17 008    77   2.20  -1.70  -5.60 -99.000   0.068   0.003   0.065   0.066   0.001   0.065   0.000   0.000   36.82   33.74    0.17   33.57    0.00    0.00 -99.000 -99.000 -99.000 
   17 009    78   1.40  -1.00  -4.10 -99.000   0.051   0.002   0.049   0.049   0.000   0.049   0.000   0.000   36.87   33.79    0.17   33.62    0.00    0.00 -99.000 -99.000 -99.000 
   17 010    79   3.40  -2.70  -7.10 -99.000   0.084   0.004   0.080   0.081   0.000   0.080   0.000   0.000   36.95   33.87    0.17   33.70    0.00    0.00 -99.000 -99.000 -99.000 
   17 011    80   1.90   2.70  -8.00 -99.000   0.138   0.006   0.132   0.133   0.001   0.132   0.000   0.000   37.09   34.01    0.17   33.84    0.00    0.00 -99.000 -99.000 -99.000 
   17 012    81   2.30   3.90   1.30 -99.000   0.242   0.011   0.232   0.233   0.001   0.232   0.000   0.000   37.33   34.24    0.17   34.07    0.00    0.00 -99.000 -99.000 -99.000 
   17 013    82   2.40   4.60  -2.20 -99.000   0.288   0.013   0.275   0.277   0.001   0.275   0.000   0.000   37.62   34.52    0.17   34.34    0.00    0.00 -99.000 -99.000 -99.000 
   17 014    83   2.00   0.80  -2.70 -99.000   0.111   0.005   0.106   0.109   0.003   0.106   0.000   0.000   37.73   34.63    0.18   34.45    0.00    0.00 -99.000 -99.000 -99.000 
   17 015    84   3.10  -1.10  -4.70 -99.000   0.113   0.005   0.108   0.109   0.001   0.108   0.000   0.000   37.85   34.73    0.18   34.56    0.00    0.00 -99.000 -99.000 -99.000 
   17 016    85   3.30  -2.00  -6.00 -99.000   0.098   0.004   0.094   0.095   0.000   0.094   0.000   0.000   37.94   34.83    0.18   34.65    0.00    0.00 -99.000 -99.000 -99.000 
   17 017    86   4.70  -3.80  -8.20 -99.000   0.094   0.004   0.089   0.090   0.000   0.089   0.000   0.000   38.04   34.92    0.18   34.74    0.00    0.00 -99.000 -99.000 -99.000 
   17 018    87   3.60  -3.80  -6.50 -99.000   0.074   0.003   0.070   0.071   0.000   0.070   0.000   0.000   38.11   34.99    0.18   34.81    0.00    0.00 -99.000 -99.000 -99.000 
   17 019    88   6.30  -3.50  -9.90 -99.000   0.129   0.006   0.124   0.124   0.000   0.124   0.000   0.000   38.24   35.11    0.18   34.93    0.00    0.00 -99.000 -99.000 -99.000 
   17 020    89   6.70  -2.20 -11.00 -99.000   0.177   0.008   0.169   0.169   0.001   0.169   0.000   0.000   38.42   35.28    0.18   35.10    0.00    0.00 -99.000 -99.000 -99.000 
   17 021    90   7.10  -5.70 -15.00 -99.000   0.084   0.004   0.080   0.081   0.001   0.080   0.000   0.000   38.50   35.36    0.18   35.18    0.00    0.00 -99.000 -99.000 -99.000 
   17 022    91   5.70  -6.90 -15.00 -99.000   0.052   0.002   0.050   0.051   0.001   0.050   0.000   0.000   38.55   35.41    0.18   35.23    0.00    0.00 -99.000 -99.000 -99.000 
   17 023    92   5.00  -8.30 -17.00 -99.000   0.032   0.001   0.031   0.032   0.001   0.031   0.000   0.000   38.59   35.45    0.18   35.26    0.00    0.00 -99.000 -99.000 -99.000 
   17 024    93   2.00  -7.10 -12.00 -99.000   0.019   0.001   0.018   0.018   0.001   0.018   0.000   0.000   38.60   35.46    0.18   35.28    0.00    0.00 -99.000 -99.000 -99.000 
   17 025    94   2.00  -3.40 -10.00 -99.000   0.042   0.002   0.040   0.040   0.000   0.040   0.000   0.000   38.65   35.50    0.18   35.32    0.00    0.00 -99.000 -99.000 -99.000 
   17 026    95   5.00  -1.40  -9.80 -99.000   0.158   0.007   0.151   0.152   0.001   0.151   0.000   0.000   38.80   35.66    0.18   35.47    0.00    0.00 -99.000 -99.000 -99.000 
   17 027    96   7.50   0.10 -12.00 -99.000   0.311   0.014   0.297   0.298   0.001   0.297   0.000   0.000   39.11   35.95    0.19   35.77    0.00    0.00 -99.000 -99.000 -99.000 
   17 028    97   6.30  -1.80 -11.00 -99.000   0.180   0.008   0.171   0.173   0.001   0.171   0.000   0.000   39.29   36.13    0.19   35.94    0.00    0.00 -99.000 -99.000 -99.000 
   17 029    98   7.60   1.80 -12.00 -99.000   0.445   0.020   0.425   0.426   0.001   0.425   0.000   0.000   39.74   36.55    0.19   36.36    0.00    0.00 -99.000 -99.000 -99.000 
   17 030    99   5.20   1.60 -10.00 -99.000   0.301   0.014   0.287   0.289   0.002   0.287   0.000   0.000   40.04   36.84    0.19   36.65    0.00    0.00 -99.000 -99.000 -99.000 
   17 031   100   5.00   4.50   0.00 -99.000   0.601   0.027   0.574   0.575   0.001   0.574   0.000   0.000   40.64   37.42    0.19   37.23    0.00    0.00 -99.000 -99.000 -99.000 
   17 032   101   3.60   2.50  -0.30 -99.000   0.292   0.014   0.278   0.284   0.005   0.278   0.000   0.000   40.93   37.70    0.20   37.50    0.00    0.00 -99.000 -99.000 -99.000 
   17 033   102   5.10   4.90  -0.50 -99.000   0.661   0.032   0.629   0.631   0.002   0.629   0.000   0.000   41.59   38.33    0.20   38.13    0.00    0.00 -99.000 -99.000 -99.000 
   17 034   103   3.70   4.10  -2.50 -99.000   0.397   0.020   0.376   0.384   0.007   0.376   0.000   0.000   41.99   38.71    0.21   38.51    0.00    0.00 -99.000 -99.000 -99.000 
   17 035   104   6.20   6.80  -1.10 -99.000   1.022   0.054   0.968   0.973   0.005   0.968   0.000   0.000   43.01   39.69    0.21   39.48    0.00    0.00 -99.000 -99.000 -99.000 
   17 036   105   7.10   8.10  -1.20 -99.000   1.192   0.067   1.125   1.142   0.017   1.125   0.000   0.000   44.20   40.83    0.23   40.60    0.00    0.00 -99.000 -99.000 -99.000 
   17 037   106   3.90   3.80   0.30 -99.000   0.404   0.025   0.379   0.406   0.027   0.379   0.000   0.000   44.61   41.24    0.26   40.98    0.00    0.00 -99.000 -99.000 -99.000 
   17 038   107   5.60   5.90  -0.10 -99.000   0.909   0.058   0.851   0.855   0.004   0.851   0.000   0.000   45.52   42.09    0.26   41.83    0.00    0.00 -99.000 -99.000 -99.000 
   17 039   108   4.70   2.00  -2.10 -99.000   0.327   0.022   0.305   0.319   0.014   0.305   0.000   0.000   45.84   42.41    0.27   42.14    0.00    0.00 -99.000 -99.000 -99.000 
   17 040   109   4.70   0.20  -2.60 -99.000   0.226   0.015   0.211   0.214   0.004   0.211   0.000   0.000   46.07   42.62    0.28   42.35    0.00    0.00 -99.000 -99.000 -99.000 
   17 041   110   3.80  -1.00  -3.00 -99.000   0.143   0.010   0.133   0.134   0.001   0.133   0.000   0.000   46.21   42.76    0.28   42.48    0.00    0.00 -99.000 -99.000 -99.000 
   17 042   111   9.40   4.30  -5.20 -99.000   0.992   0.067   0.925   0.744   0.000   0.743   0.000   0.000   47.21   43.50    0.28   43.22    0.00    0.00 -99.000 -99.000 -99.000 
   17 043   112   4.10   0.10  -1.30 -99.000   0.196   0.013   0.183   0.184   0.002   0.183   0.000   0.000   47.40   43.69    0.28   43.41    0.00    0.00 -99.000 -99.000 -99.000 
   17 044   113   4.80   4.10  -1.00 -99.000   0.513   0.035   0.478   0.479   0.001   0.478   0.000   0.000   47.91   44.17    0.28   43.89    0.00    0.00 -99.000 -99.000 -99.000 
   17 045   114   9.70   7.50  -4.80 -99.000   1.510   0.106   1.404   1.412   0.008   1.404   0.000   0.000   49.42   45.58    0.29   45.29    0.00    0.00 -99.000 -99.000 -99.000 
   17 046   115   9.90   9.90  -5.00 -99.000   1.598   0.113   1.486   1.156   0.002   1.154   0.000   0.000   51.02   46.73    0.29   46.44    0.00    0.00 -99.000 -99.000 -99.000 
   17 047   116  10.90  13.80  -3.20 -99.000   1.914   0.136   1.779   0.003   0.003   0.000   0.000   0.000   52.94   46.74    0.29   46.44    0.00    0.00 -99.000 -99.000 -99.000 
   17 048   117   4.70   4.50   0.60 -99.000   0.552   0.045   0.507   0.630   0.123   0.507   0.000   0.000   53.49   47.37    0.42   46.95    0.00    0.00 -99.000 -99.000 -99.000 
   17 049   118   5.30   6.00  -2.00 -99.000   0.842   0.072   0.771   0.779   0.008   0.771   0.000   0.000   54.33   48.15    0.42   47.72    0.00    0.00 -99.000 -99.000 -99.000 
   17 050   119   7.70   5.60  -3.40 -99.000   1.189   0.106   1.083   1.104   0.021   1.083   0.000   0.000   55.52   49.25    0.45   48.80    0.00    0.00 -99.000 -99.000 -99.000 
   17 051   120   7.10   8.40   2.30 -99.000   1.233   0.112   1.121   1.149   0.028   1.121   0.000   0.000   56.75   50.40    0.47   49.92    0.00    0.00 -99.000 -99.000 -99.000 
   17 052   121   3.60   9.00   6.00 -99.000   0.660   0.066   0.594   0.629   0.035   0.594   0.000   0.000   57.41   51.03    0.51   50.52    0.00    0.00 -99.000 -99.000 -99.000 
   17 053   122   4.00  11.00   7.80 -99.000   0.779   0.082   0.698   0.711   0.013   0.698   0.000   0.000   58.19   51.74    0.52   51.22    0.00    0.00 -99.000 -99.000 -99.000 
   17 054   123   8.80  16.70   6.40 -99.000   1.829   0.205   1.624   1.645   0.020   1.624   0.000   0.000   60.02   53.38    0.54   52.84    0.00    0.00 -99.000 -99.000 -99.000 
   17 055   124   6.60  11.10  -1.70 -99.000   1.144   0.146   0.998   1.169   0.171   0.998   0.000   0.000   61.17   54.55    0.71   53.84    0.00    0.00 -99.000 -99.000 -99.000 
   17 056   125  12.80   8.20  -3.60 -99.000   2.047   0.286   1.762   1.867   0.105   1.762   0.000   0.000   63.21   56.42    0.82   55.60    0.00    0.00 -99.000 -99.000 -99.000 
   17 057   126   8.60  10.30  -1.70 -99.000   1.450   0.211   1.240   0.983   0.109   0.873   0.000   0.000   64.66   57.40    0.93   56.47    0.00    0.00 -99.000 -99.000 -99.000 
   17 058   127  12.60  13.30  -3.20 -99.000   2.186   0.349   1.837   1.960   0.123   1.837   0.000   0.000   66.85   59.36    1.05   58.31    0.00    0.00 -99.000 -99.000 -99.000 
   17 059   128   3.60   6.40   0.30 -99.000   0.571   0.103   0.468   0.752   0.284   0.468   0.000   0.000   67.42   60.11    1.33   58.78    0.00    0.00 -99.000 -99.000 -99.000 
   17 060   129   7.20   7.50   2.10 -99.000   1.230   0.230   1.001   1.029   0.028   1.001   0.000   0.000   68.65   61.14    1.36   59.78    0.00    0.00 -99.000 -99.000 -99.000 
   17 061   130  13.00  10.20  -1.20 -99.000   2.240   0.450   1.791   1.849   0.059   1.791   0.000   0.000   70.89   62.99    1.42   61.57    0.00    0.00 -99.000 -99.000 -99.000 
   17 062   131   9.00   9.90  -2.60 -99.000   1.497   0.325   1.173   1.386   0.213   1.173   0.000   0.000   72.39   64.38    1.63   62.74    0.00    0.00 -99.000 -99.000 -99.000 
   17 063   132   9.90  16.80   2.70 -99.000   1.938   0.443   1.497   1.679   0.182   1.497   0.000   0.000   74.33   66.06    1.82   64.24    0.00    0.00 -99.000 -99.000 -99.000 
   17 064   133   9.40   9.80   2.10 -99.000   1.622   0.417   1.206   1.666   0.460   1.206   0.000   0.000   75.95   67.72    2.28   65.45    0.00    0.00 -99.000 -99.000 -99.000 
   17 065   134   7.30   8.30   3.30 -99.000   1.247   0.346   0.901   1.070   0.169   0.901   0.000   0.000   77.19   68.79    2.45   66.35    0.00    0.00 -99.000 -99.000 -99.000 
   17 066   135   7.00   6.60   0.60 -99.000   1.122   0.333   0.790   0.884   0.094   0.790   0.000   0.000   78.32   69.68    2.54   67.14    0.00    0.00 -99.000 -99.000 -99.000 
   17 067   136   7.60   8.10   0.00 -99.000   1.239   0.378   0.862   0.948   0.086   0.862   0.000   0.000   79.55   70.62    2.63   68.00    0.00    0.00 -99.000 -99.000 -99.000 
   17 068   137   3.80   9.60   7.00 -99.000   0.693   0.218   0.476   0.618   0.143   0.476   0.000   0.000   80.25   71.24    2.77   68.47    0.00    0.00 -99.000 -99.000 -99.000 
   17 069   138  11.60   8.30  -1.30 -99.000   1.885   0.619   1.267   1.309   0.042   1.267   0.000   0.000   82.13   72.55    2.81   69.74    0.00    0.00 -99.000 -99.000 -99.000 
   17 070   139  14.40   9.50  -3.10 -99.000   2.315   0.783   1.534   1.761   0.227   1.534   0.000   0.000   84.45   74.31    3.04   71.28    0.00    0.00 -99.000 -99.000 -99.000 
   17 071   140  16.00   9.10   0.30 -99.000   2.640   0.916   1.726   2.090   0.364   1.726   0.000   0.000   87.09   76.40    3.40   73.00    0.00    0.00 -99.000 -99.000 -99.000 
   17 072   141  16.00  10.30  -1.60 -99.000   2.619   0.942   1.680   1.723   0.316   1.407   0.000   0.000   89.71   78.13    3.72   74.41    0.00    0.00 -99.000 -99.000 -99.000 
   17 073   142  12.40  11.50  -1.60 -99.000   2.062   0.769   1.294   1.747   0.453   1.294   0.000   0.000   91.77   79.87    4.17   75.70    0.00    0.00 -99.000 -99.000 -99.000 
   17 074   143   9.70  11.70   1.00 -99.000   1.657   0.646   1.012   1.501   0.489   1.012   0.000   0.000   93.43   81.37    4.66   76.71    0.00    0.00 -99.000 -99.000 -99.000 
[...]
   17 111   180  20.80  11.80  -3.10 -99.000   3.545   0.684   2.863   1.434   0.035   1.400   0.000   0.000  191.90  113.79    2.29  111.51    0.00    0.00 -99.000 -99.000 -99.000 
   17 112   181   8.30  11.80   2.30 -99.000   1.494   0.301   1.194   1.326   0.132   1.194   0.000   0.000  193.39  115.12    2.42  112.70    0.00    0.00 -99.000 -99.000 -99.000 
   17 113   182  14.40   8.60  -2.30 -99.000   2.346   0.485   1.862   1.645   0.059   1.586   0.000   0.000  195.74  116.77    2.48  114.29    0.00    0.00 -99.000 -99.000 -99.000 
   17 114   183  25.30  15.90  -3.70 -99.000   4.566   0.969   3.599   2.032   0.063   1.969   0.000   0.000  200.31  118.80    2.54  116.25    0.00    0.00 -99.000 -99.000 -99.000 
   17 115   184   9.90  11.80   3.80 -99.000   1.804   0.403   1.402   1.695   0.293   1.402   0.000   0.000  202.11  120.49    2.84  117.66    0.00    0.00 -99.000 -99.000 -99.000 
   17 116   185   6.20   4.80   1.60 -99.000   0.785   0.178   0.608   0.671   0.063   0.608   0.000   0.000  202.89  121.16    2.90  118.26    0.00    0.00 -99.000 -99.000 -99.000 
   17 117   186   6.20   4.30   0.40 -99.000   0.704   0.159   0.545   0.554   0.009   0.545   0.000   0.000  203.60  121.72    2.91  118.81    0.00    0.00 -99.000 -99.000 -99.000 
   17 118   187   7.00   5.20   0.20 -99.000   1.117   0.255   0.863   0.873   0.011   0.863   0.000   0.000  204.71  122.59    2.92  119.67    0.00    0.00 -99.000 -99.000 -99.000 
   17 119   188  17.50  12.60   1.30 -99.000   3.210   0.742   2.469   2.487   0.018   2.469   0.000   0.000  207.92  125.08    2.94  122.14    0.00    0.00 -99.000 -99.000 -99.000 
   17 120   189  26.10  14.90   1.00 -99.000   4.874   1.184   3.692   3.451   0.168   3.282   0.000   0.000  212.80  128.53    3.10  125.42    0.00    0.00 -99.000 -99.000 -99.000 
   17 121   190  11.10  14.10   2.00 -99.000   2.043   0.525   1.518   1.812   0.294   1.518   0.000   0.000  214.84  130.34    3.40  126.94    0.00    0.00 -99.000 -99.000 -99.000 
   17 122   191  15.70  14.90   4.10 -99.000   3.053   0.804   2.250   2.384   0.134   2.250   0.000   0.000  217.89  132.72    3.53  129.19    0.00    0.00 -99.000 -99.000 -99.000 
   17 123   192  13.60  15.50   5.40 -99.000   2.668   0.727   1.942   2.115   0.173   1.942   0.000   0.000  220.56  134.84    3.71  131.13    0.00    0.00 -99.000 -99.000 -99.000 
   17 124   193  14.20  14.60   4.90 -99.000   2.715   0.762   1.954   1.806   0.157   1.649   0.000   0.000  223.28  136.64    3.86  132.78    0.00    0.00 -99.000 -99.000 -99.000 
   17 125   194  14.20  16.20   6.40 -99.000   2.814   0.812   2.003   2.149   0.146   2.003   0.000   0.000  226.09  138.79    4.01  134.78    0.00    0.00 -99.000 -99.000 -99.000 
   17 126   195  23.80  20.20   5.50 -99.000   4.919   1.464   3.457   2.132   0.171   1.961   0.000   0.000  231.01  140.92    4.18  136.75    0.00    0.00 -99.000 -99.000 -99.000 
   17 127   196   8.10  13.10   9.80 -99.000   1.566   0.487   1.080   1.495   0.415   1.080   0.000   0.000  232.58  142.42    4.60  137.82    0.00    0.00 -99.000 -99.000 -99.000 
   17 128   197   6.80  11.80   6.50 -99.000   1.273   0.403   0.871   0.904   0.033   0.871   0.000   0.000  233.85  143.32    4.63  138.70    0.00    0.00 -99.000 -99.000 -99.000 
   17 129   198  15.10  11.10   3.40 -99.000   2.717   0.872   1.847   1.891   0.044   1.847   0.000   0.000  236.57  145.21    4.67  140.54    0.00    0.00 -99.000 -99.000 -99.000 
   17 130   199  28.10  16.80   0.20 -99.000   5.286   1.736   3.553   3.543   0.098   3.445   0.000   0.000  241.85  148.76    4.77  143.99    0.00    0.00 -99.000 -99.000 -99.000 
   17 131   200  21.40  21.50   3.20 -99.000   4.386   1.498   2.890   3.307   0.416   2.890   0.000   0.000  246.24  152.06    5.19  146.88    0.00    0.00 -99.000 -99.000 -99.000 
   17 132   201  20.30  21.90  11.40 -99.000   4.462   1.572   2.892   2.328   0.501   1.826   0.000   0.000  250.70  154.39    5.69  148.70    0.00    0.00 -99.000 -99.000 -99.000 
   17 133   202  19.10  21.20   9.40 -99.000   4.070   1.477   2.596   1.539   0.354   1.184   0.000   0.000  254.77  155.93    6.04  149.89    0.00    0.00 -99.000 -99.000 -99.000 
   17 134   203  17.60  20.20   9.20 -99.000   3.683   1.372   2.313   0.976   0.369   0.607   0.000   0.000  258.45  156.91    6.41  150.50    0.00    0.00 -99.000 -99.000 -99.000 
   17 135   204  18.10  18.00   8.30 -99.000   3.755   1.434   2.323   2.650   0.327   2.323   0.000   0.000  262.21  159.56    6.74  152.82    0.00    0.00 -99.000 -99.000 -99.000 
   17 136   205  24.80  21.70   6.80 -99.000   5.296   2.071   3.228   3.501   0.274   3.228   0.000   0.000  267.50  163.06    7.01  156.05    0.00    0.00 -99.000 -99.000 -99.000 
   17 137   206  27.60  23.40   7.90 -99.000   6.010   2.410   3.603   2.925   0.583   2.342   0.000   0.000  273.51  165.98    7.59  158.39    0.00    0.00 -99.000 -99.000 -99.000 
   17 138   207  23.30  27.10   8.80 -99.000   5.320   2.188   3.135   2.782   0.696   2.087   0.000   0.000  278.83  168.76    8.29  160.47    0.00    0.00 -99.000 -99.000 -99.000 
   17 139   208  15.60  24.70   7.20 -99.000   3.391   1.423   1.970   2.785   0.814   1.970   0.000   0.000  282.23  171.55    9.10  162.44    0.00    0.00 -99.000 -99.000 -99.000 
   17 140   209  23.30  17.30   4.20 -99.000   4.443   1.894   2.552   1.683   0.589   1.094   0.000   0.000  286.67  173.23    9.69  163.54    0.00    0.00 -99.000 -99.000 -99.000 
   17 141   210  21.60  18.00   5.70 -99.000   4.210   1.832   2.381   1.355   0.428   0.927   0.000   0.000  290.88  174.59   10.12  164.47    0.00    0.00 -99.000 -99.000 -99.000 
   17 142   211  23.70  22.20   7.90 -99.000   4.981   2.210   2.774   1.049   0.418   0.631   0.000   0.000  295.86  175.64   10.54  165.10    0.00    0.00 -99.000 -99.000 -99.000 
   17 143   212  23.40  24.10   8.30 -99.000   5.049   2.287   2.765   1.123   0.672   0.451   0.000   0.000  300.91  176.76   11.21  165.55    0.00    0.00 -99.000 -99.000 -99.000 
   17 144   213  18.80  17.90  10.50 -99.000   3.805   1.753   2.055   1.228   0.811   0.417   0.000   0.000  304.71  177.99   12.02  165.97    0.00    0.00 -99.000 -99.000 -99.000 
   17 145   214  20.10  19.40   7.50 -99.000   4.036   1.885   2.154   0.683   0.299   0.384   0.000   0.000  308.75  178.67   12.32  166.35    0.00    0.00 -99.000 -99.000 -99.000 
   17 146   215  29.30  22.70   5.90 -99.000   6.057   2.874   3.187   0.871   0.517   0.354   0.000   0.000  314.81  179.54   12.84  166.70    0.00    0.00 -99.000 -99.000 -99.000 
   17 147   216  29.60  24.90   8.00 -99.000   6.403   3.100   3.307   1.381   1.047   0.334   0.000   0.000  321.21  180.92   13.88  167.04    0.00    0.00 -99.000 -99.000 -99.000 
   17 148   217  29.60  27.40   9.00 -99.000   6.652   3.281   3.375   1.489   1.175   0.314   0.000   0.000  327.86  182.41   15.06  167.35    0.00    0.00 -99.000 -99.000 -99.000 
   17 149   218  27.20  29.70  10.10 -99.000   6.331   3.175   3.160   1.698   1.408   0.290   0.000   0.000  334.19  184.11   16.47  167.64    0.00    0.00 -99.000 -99.000 -99.000 
   17 150   219  25.10  28.70  16.10 -99.000   6.063   2.948   3.118   1.827   1.560   0.267   0.000   0.000  340.26  185.94   18.03  167.91    0.00    0.00 -99.000 -99.000 -99.000 
   17 151   220  23.90  25.30  15.70 -99.000   5.614   2.701   2.916   2.592   1.328   1.264   0.000   0.000  345.87  188.53   19.35  169.17    0.00    0.00 -99.000 -99.000 -99.000 
   17 152   221  23.60  25.90  13.40 -99.000   5.468   2.604   2.867   2.135   1.113   1.023   0.000   0.000  351.34  190.66   20.47  170.20    0.00    0.00 -99.000 -99.000 -99.000 
   17 153   222  23.30  26.50  11.70 -99.000   5.355   2.526   2.832   2.335   1.453   0.882   0.000   0.000  356.69  193.00   21.92  171.08    0.00    0.00 -99.000 -99.000 -99.000 
   17 154   223  25.40  27.80  12.50 -99.000   5.959   2.784   3.178   4.370   1.736   2.634   0.000   0.000  362.65  197.37   23.66  173.71    0.00    0.00 -99.000 -99.000 -99.000 
   17 155   224  12.90  19.10  10.00 -99.000   2.686   1.243   1.445   3.510   2.065   1.445   0.000   0.000  365.34  200.88   25.72  175.16    0.00    0.00 -99.000 -99.000 -99.000 
   17 156   225  14.50  21.30   9.60 -99.000   3.087   1.418   1.671   1.651   0.633   1.018   0.000   0.000  368.43  202.53   26.35  176.18    0.00    0.00 -99.000 -99.000 -99.000 
   17 157   226   7.60  16.90   8.00 -99.000   1.507   0.687   0.821   1.852   1.031   0.821   0.000   0.000  369.93  204.38   27.39  177.00    0.00    0.00 -99.000 -99.000 -99.000 
   17 158   227  21.50  15.00   5.20 -99.000   4.067   1.843   2.228   2.672   0.445   2.228   0.000   0.000  374.00  207.05   27.83  179.22    0.00    0.00 -99.000 -99.000 -99.000 
   17 159   228  26.40  22.20   3.70 -99.000   5.420   2.443   2.980   3.840   0.860   2.980   0.000   0.000  379.42  210.89   28.69  182.20    0.00    0.00 -99.000 -99.000 -99.000 
   17 160   229  21.60  24.90   7.20 -99.000   4.710   2.110   2.603   5.023   2.421   2.603   0.000   0.000  384.13  215.92   31.11  184.81    0.00    0.00 -99.000 -99.000 -99.000 
   17 161   230  27.40  22.00  10.10 -99.000   5.946   2.642   3.307   5.658   2.351   3.307   0.000   0.000  390.08  221.58   33.46  188.11    0.00    0.00 -99.000 -99.000 -99.000 
   17 162   231  29.70  26.30   8.00 -99.000   6.633   2.948   3.689   4.054   1.805   2.250   0.000   0.000  396.71  225.63   35.27  190.36    0.00    0.00 -99.000 -99.000 -99.000 
   17 163   232  20.10  26.50  11.40 -99.000   4.610   2.020   2.592   5.223   3.468   1.755   0.000   0.000  401.32  230.85   38.73  192.12    0.00    0.00 -99.000 -99.000 -99.000 
   17 164   233  29.20  24.10  11.80 -99.000   6.509   2.812   3.701   2.830   2.384   0.446   0.000   0.000  407.83  233.68   41.12  192.56    0.00    0.00 -99.000 -99.000 -99.000 
   17 165   234  27.00  24.70  11.00 -99.000   6.028   2.567   3.465   2.737   2.377   0.359   0.000   0.000  413.86  236.42   43.50  192.92    0.00    0.00 -99.000 -99.000 -99.000 
   17 166   235  27.00  28.90   9.60 -99.000   6.277   2.644   3.636   2.829   2.524   0.306   0.000   0.000  420.13  239.25   46.02  193.23    0.00    0.00 -99.000 -99.000 -99.000 
   17 167   236  25.10  23.70  11.70 -99.000   5.626   2.345   3.284   6.136   3.653   2.483   0.000   0.000  425.76  245.38   49.67  195.71    0.00    0.00 -99.000 -99.000 -99.000 
   17 168   237  23.60  20.40  10.20 -99.000   4.975   2.050   2.928   3.456   2.081   1.376   0.000   0.000  430.73  248.84   51.75  197.09    0.00    0.00 -99.000 -99.000 -99.000 
   17 169   238  28.30  22.90   7.40 -99.000   6.003   2.446   3.560   1.690   1.493   0.197   0.000   0.000  436.74  250.53   53.25  197.28    0.00    0.00 -99.000 -99.000 -99.000 
   17 170   239  30.20  28.20  10.10 -99.000   7.006   2.827   4.183   2.705   2.529   0.175   0.000   0.000  443.74  253.24   55.78  197.46    0.00    0.00 -99.000 -99.000 -99.000 
   17 171   240  25.90  30.60  12.60 -99.000   6.306   2.519   3.789   3.691   3.531   0.160   0.000   0.000  450.05  256.93   59.31  197.62    0.00    0.00 -99.000 -99.000 -99.000 
   17 172   241  22.60  30.90  14.90 -99.000   5.626   2.220   3.409   3.700   3.260   0.440   0.000   0.000  455.67  260.63   62.57  198.06    0.00    0.00 -99.000 -99.000 -99.000 
   17 173   242  25.90  31.30  14.00 -99.000   6.433   2.502   3.933   2.490   2.372   0.118   0.000   0.000  462.11  263.12   64.94  198.18    0.00    0.00 -99.000 -99.000 -99.000 
   17 174   243  23.70  29.60  15.40 -99.000   5.911   2.298   3.616   5.236   2.577   2.660   0.000   0.000  468.02  268.35   67.52  200.84    0.00    0.00 -99.000 -99.000 -99.000 
   17 175   244  24.80  26.70  14.40 -99.000   5.891   2.285   3.608   3.454   2.042   1.412   0.000   0.000  473.91  271.81   69.56  202.25    0.00    0.00 -99.000 -99.000 -99.000 
   17 176   245  15.30  22.80  12.30 -99.000   3.395   1.313   2.084   2.456   1.772   0.684   0.000   0.000  477.31  274.26   71.33  202.93    0.00    0.00 -99.000 -99.000 -99.000 
   17 177   246  28.90  29.90  13.50 -99.000   7.060   2.719   4.344   2.072   1.000   1.072   0.000   0.000  484.37  276.33   72.33  204.00    0.00    0.00 -99.000 -99.000 -99.000 
   17 178   247  20.10  26.40  16.50 -99.000   4.869   1.868   3.004   5.504   2.500   3.004   0.000   0.000  489.24  281.84   74.83  207.01    0.00    0.00 -99.000 -99.000 -99.000 
   17 179   248  20.10  25.80  15.50 -99.000   4.837   1.844   2.995   4.223   1.228   2.995   0.000   0.000  494.07  286.06   76.06  210.00    0.00    0.00 -99.000 -99.000 -99.000 
   17 180   249  17.60  22.80  13.80 -99.000   4.050   1.532   2.519   3.742   1.223   2.519   0.000   0.000  498.12  289.80   77.28  212.52    0.00    0.00 -99.000 -99.000 -99.000 
   17 181   250  25.70  22.00  13.30 -99.000   5.808   2.179   3.632   4.306   0.892   3.413   0.000   0.000  503.93  294.11   78.17  215.94    0.00    0.00 -99.000 -99.000 -99.000 
   17 182   251  19.00  21.30  12.80 -99.000   4.203   1.563   2.641   3.685   1.044   2.641   0.000   0.000  508.13  297.79   79.22  218.58    0.00    0.00 -99.000 -99.000 -99.000 
   17 183   252  12.10  19.20  13.00 -99.000   2.597   0.957   1.641   2.444   0.803   1.641   0.000   0.000  510.73  300.24   80.02  220.22    0.00    0.00 -99.000 -99.000 -99.000 
   17 184   253  20.90  22.70  12.50 -99.000   4.662   1.702   2.962   1.610   0.410   1.201   0.000   0.000  515.39  301.85   80.43  221.42    0.00    0.00 -99.000 -99.000 -99.000 
   17 185   254  23.40  25.00  11.70 -99.000   5.327   1.925   3.404   1.423   1.013   0.410   0.000   0.000  520.72  303.27   81.44  221.83    0.00    0.00 -99.000 -99.000 -99.000 
   17 186   255  28.30  29.20  10.50 -99.000   6.716   2.399   4.320   1.791   1.431   0.359   0.000   0.000  527.43  305.06   82.87  222.19    0.00    0.00 -99.000 -99.000 -99.000 
   17 187   256  27.80  31.30  12.50 -99.000   6.869   2.420   4.452   2.580   2.266   0.314   0.000   0.000  534.30  307.64   85.14  222.50    0.00    0.00 -99.000 -99.000 -99.000 
   17 188   257  19.00  29.40  15.40 -99.000   4.703   1.630   3.074   2.710   2.234   0.475   0.000   0.000  539.01  310.35   87.37  222.98    0.00    0.00 -99.000 -99.000 -99.000 
   17 189   258  21.60  30.30  16.40 -99.000   5.454   1.855   3.601   2.271   1.334   0.937   0.000   0.000  544.46  312.62   88.71  223.91    0.00    0.00 -99.000 -99.000 -99.000 
   17 190   259  17.70  27.90  16.70 -99.000   4.355   1.449   2.907   1.612   1.406   0.206   0.000   0.000  548.81  314.23   90.11  224.12    0.00    0.00 -99.000 -99.000 -99.000 
   17 191   260  17.30  26.50  15.40 -99.000   4.300   1.396   2.906   3.904   0.998   2.906   0.000   0.000  553.11  318.14   91.11  227.03    0.00    0.00 -99.000 -99.000 -99.000 
   17 192   261  19.90  23.60  14.70 -99.000   4.718   1.491   3.229   4.166   0.937   3.229   0.000   0.000  557.83  322.30   92.05  230.25    0.00    0.00 -99.000 -99.000 -99.000 
   17 193   262  16.00  25.20  13.30 -99.000   3.811   1.171   2.642   3.418   0.776   2.642   0.000   0.000  561.64  325.72   92.82  232.90    0.00    0.00 -99.000 -99.000 -99.000 
   17 194   263  28.60  21.60   9.90 -99.000   6.330   1.891   4.441   4.902   0.894   4.008   0.000   0.000  567.97  330.62   93.72  236.90    0.00    0.00 -99.000 -99.000 -99.000 
   17 195   264  17.40  20.80   9.70 -99.000   3.766   1.091   2.676   3.771   1.095   2.676   0.000   0.000  571.74  334.39   94.81  239.58    0.00    0.00 -99.000 -99.000 -99.000 
   17 196   265  18.60  19.60  11.20 -99.000   4.083   1.151   2.933   3.674   0.741   2.933   0.000   0.000  575.82  338.07   95.55  242.51    0.00    0.00 -99.000 -99.000 -99.000 
   17 197   266  25.50  23.30   8.30 -99.000   5.682   1.557   4.126   3.204   0.572   2.632   0.000   0.000  581.50  341.27   96.13  245.15    0.00    0.00 -99.000 -99.000 -99.000 
   17 198   267  22.40  26.00  10.60 -99.000   5.236   1.392   3.846   3.152   1.237   1.915   0.000   0.000  586.74  344.42   97.36  247.06    0.00    0.00 -99.000 -99.000 -99.000 
   17 199   268  26.10  29.30  11.90 -99.000   6.394   1.643   4.753   2.514   1.237   1.277   0.000   0.000  593.13  346.94   98.60  248.34    0.00    0.00 -99.000 -99.000 -99.000 
   17 200   269  26.80  32.00  15.00 -99.000   6.927   1.704   5.224   2.553   1.523   1.030   0.000   0.000  600.06  349.49  100.12  249.37    0.00    0.00 -99.000 -99.000 -99.000 
   17 201   270  14.70  27.50  14.20 -99.000   3.588   0.838   2.752   1.937   1.427   0.509   0.000   0.000  603.65  351.43  101.55  249.88    0.00    0.00 -99.000 -99.000 -99.000 
   17 202   271  25.40  28.50  13.00 -99.000   6.237   1.345   4.893   1.453   0.711   0.742   0.000   0.000  609.89  352.88  102.26  250.62    0.00    0.00 -99.000 -99.000 -99.000 
   17 203   272  20.90  28.60  15.60 -99.000   5.247   1.055   4.193   1.456   1.060   0.396   0.000   0.000  615.13  354.34  103.32  251.01    0.00    0.00 -99.000 -99.000 -99.000 
   17 204   273  14.90  23.00  15.70 -99.000   3.518   0.654   2.865   1.606   0.742   0.864   0.000   0.000  618.65  355.94  104.06  251.88    0.00    0.00 -99.000 -99.000 -99.000 
   17 205   274   8.90  18.10  11.40 -99.000   1.907   0.322   1.586   1.224   0.290   0.934   0.000   0.000  620.56  357.17  104.35  252.81    0.00    0.00 -99.000 -99.000 -99.000 
   17 206   275  12.60  17.90  11.20 -99.000   2.729   0.417   2.313   2.449   0.136   2.313   0.000   0.000  623.29  359.62  104.49  255.13    0.00    0.00 -99.000 -99.000 -99.000 
   17 207   276   6.10  13.90  12.20 -99.000   1.291   0.181   1.110   1.262   0.152   1.110   0.000   0.000  624.58  360.88  104.64  256.24    0.00    0.00 -99.000 -99.000 -99.000 
   17 208   277  10.70  19.00  11.50 -99.000   2.429   0.309   2.120   2.139   0.019   2.120   0.000   0.000  627.01  363.02  104.66  258.36    0.00    0.00 -99.000 -99.000 -99.000 
   17 209   278  18.80  21.10  14.00 -99.000   4.476   0.516   3.960   4.058   0.129   3.928   0.000   0.000  631.48  367.07  104.79  262.28    0.00    0.00 -99.000 -99.000 -99.000 
   17 210   279  24.20  27.30  12.40 -99.000   6.039   0.608   5.432   3.623   0.171   3.452   0.000   0.000  637.52  370.70  104.96  265.74    0.00    0.00 -99.000 -99.000 -99.000 
   17 211   280  22.90  32.00  14.20 -99.000   6.064   0.505   5.560   2.046   0.366   1.680   0.000   0.000  643.59  372.74  105.33  267.42    0.00    0.00 -99.000 -99.000 -99.000 
   17 212   281  21.00  30.40  15.50 -99.000   5.557   0.347   5.210   1.895   0.313   1.582   0.000   0.000  649.14  374.64  105.64  269.00    0.00    0.00 -99.000 -99.000 -99.000 
   17 213   282  23.90  33.80  15.80 -99.000   6.585   0.213   6.373   2.534   0.130   2.404   0.000   0.000  655.73  377.17  105.77  271.40    0.00    0.00 -99.000 -99.000 -99.000 
   17 214   283  22.00  30.60  17.40 -99.000   6.083   0.038   6.045   4.219   0.018   4.201   0.000   0.000  661.81  381.39  105.79  275.60    0.00    0.00 -99.000 -99.000 -99.000 
   17 215   284  14.30  30.40  16.90 -99.000   3.864   0.024   3.840   3.724   0.018   3.706   0.000   0.000  665.67  385.11  105.81  279.31    0.00    0.00 -99.000 -99.000 -99.000 
   17 216   285  15.10  28.30  18.70 -99.000   4.088   0.025   4.063   2.786   0.018   2.768   0.000   0.000  669.76  387.90  105.82  282.08    0.00    0.00 -99.000 -99.000 -99.000 
   17 217   286  22.20  29.60  17.40 -99.000   5.978   0.037   5.941   2.079   0.018   2.061   0.000   0.000  675.74  389.98  105.84  284.14    0.00    0.00 -99.000 -99.000 -99.000 
   17 218   287  13.10  20.10  12.10 -99.000   2.995   0.019   2.976   1.332   0.018   1.314   0.000   0.000  678.73  391.31  105.86  285.45    0.00    0.00 -99.000 -99.000 -99.000 
   17 219   288  23.50  23.30   9.30 -99.000   5.449   0.034   5.415   1.067   0.018   1.049   0.000   0.000  684.18  392.38  105.88  286.50    0.00    0.00 -99.000 -99.000 -99.000 
