*GHG emissions output file

*DSSAT Cropping System Model Ver. 4.8.5.000 -release  MAR 01, 2026 09:34:40

*RUN   1        : 1                         WHAPS048 TUDU1701    1
 MODEL          : WHAPS048 - Wheat
 EXPERIMENT     : TUDU1701 WH
 DATA PATH      :
 TREATMENT  1   : 1                         WHAPS048
  
!               |---------- Daily (g/ha) ----------|------- Cumulative (kg/ha) --------|---- Cum CO2-equiv kg[CO2eq]/ha ---|
!               Soil CO2  Net CO2      N2O      CH4 Soil CO2  Net CO2      N2O      CH4  Net CO2      N2O      CH4    Total
!                g[C]/ha  g[C]/ha  g[N]/ha  g[C]/ha kg[C]/ha kg[C]/ha kg[N]/ha kg[C]/ha    CO2eq    CO2eq    CO2eq    CO2eq
@YEAR DOY   DAS   CO2GED   CO2END   N2OGED   CH4GED    CO2EC   CO2ENC    N2OEC    CH4EC    CCEQC    NCEQC    MCEQC    TCEQC
   16 298     1    41008    -2563     0.01     0.00       41       -3     0.00     0.00       -9        0        0       -9
   16 299     2    42724    -2969     0.01     0.00       84       -6     0.00     0.00      -20        0        0      -20
   16 300     3    41059    -2813     0.01     0.00      125       -8     0.00     0.00      -31        0        0      -31
   16 301     4    36016    -2156     0.01     0.00      161      -11     0.00     0.00      -39        0        0      -39
   16 302     5    27781    -1125     0.01     0.00      189      -12     0.00     0.00      -43        0        0      -43
   16 303     6    20200     -375     0.01     0.00      209      -12     0.00     0.00      -44        0        0      -44
   16 304     7    14617      125     0.02     0.00      223      -12     0.00     0.00      -44        0        0      -44
   16 305     8     9537      625     0.02     0.00      233      -11     0.00     0.00      -41        0        0      -41
   16 306     9     6442      813     0.03     0.00      239      -10     0.00     0.00      -38        0        0      -38
   16 307    10     4063     1000     0.03     0.00      243       -9     0.00     0.00      -35        0        0      -35
   16 308    11     3989      938     0.03     0.00      247       -9     0.00     0.00      -31        0        0      -31
   16 309    12     1890      938     0.04     0.00      249       -8     0.00     0.00      -28        0        0      -28
   16 310    13     1368      688     0.04     0.00      251       -7     0.00     0.00      -25        0        0      -25
   16 311    14     1671      813     0.03     0.00      252       -6     0.00     0.00      -22        0        0      -22
   16 312    15     1855      938     0.01     0.00      254       -5     0.00     0.00      -19        0        0      -19
   16 313    16     1138      594     0.03     0.00      255       -5     0.00     0.00      -17        0        0      -16
   16 314    17      977      500     0.04     0.00      256       -4     0.00     0.00      -15        0        0      -15
   16 315    18      971      563     0.03     0.00      257       -3     0.00     0.00      -13        0        0      -13
   16 316    19      736      469     0.02     0.00      258       -3     0.00     0.00      -11        0        0      -11
   16 317    20      629      313     0.02     0.00      259       -3     0.00     0.00      -10        0        0      -10
   16 318    21      617      344     0.04     0.00      259       -2     0.00     0.00       -9        0        0       -8
   16 319    22      503      281     0.05     0.00      260       -2     0.00     0.00       -8        0        0       -7
   16 320    23      338      281     0.06     0.00      260       -2     0.00     0.00       -7        0        0       -6
   16 321    24      228       94     0.03     0.00      260       -2     0.00     0.00       -6        0        0       -6
   16 322    25      375      219     0.02     0.00      261       -1     0.00     0.00       -5        0        0       -5
   16 323    26      778      438     0.04     0.00      262       -1     0.00     0.00       -4        0        0       -3
   16 324    27     1833      875     0.02     0.00      263        0     0.00     0.00       -1        0        0        0
   16 325    28     4259      938     0.02     0.00      268        1     0.00     0.00        3        0        0        3
   16 326    29     6152      844     0.06     0.00      274        2     0.00     0.00        6        0        0        6
   16 327    30     6564      906     0.08     0.00      280        3     0.00     0.00        9        0        0       10
   16 328    31     6780      813     0.08     0.00      287        3     0.00     0.00       12        0        0       13
   16 329    32     5120      875     0.08     0.00      292        4     0.00     0.00       15        0        0       16
   16 330    33     6812      875     0.09     0.00      299        5     0.00     0.00       19        1        0       19
   16 331    34     8428      750     0.09     0.00      307        6     0.00     0.00       21        1        0       22
   16 332    35     7034      781     0.10     0.00      314        7     0.00     0.00       24        1        0       25
   16 333    36     3231      938     0.10     0.00      318        8     0.00     0.00       28        1        0       28
   16 334    37     1106      594     0.11     0.00      319        8     0.00     0.00       30        1        0       31
   16 335    38      401      250     0.11     0.00      319        8     0.00     0.00       31        1        0       32
   16 336    39      105       63     0.12     0.00      319        8     0.00     0.00       31        1        0       32
   16 337    40       47       31     0.12     0.00      319        9     0.00     0.00       31        1        0       32
   16 338    41       36       63     0.12     0.00      319        9     0.00     0.00       31        1        0       32
   16 339    42       24        0     0.13     0.00      319        9     0.00     0.00       31        1        0       32
   16 340    43       17       31     0.13     0.00      319        9     0.00     0.00       32        1        0       33
   16 341    44       18        0     0.14     0.00      319        9     0.00     0.00       32        1        0       33
   16 342    45        0        0     0.14     0.00      319        9     0.00     0.00       32        1        0       33
   16 343    46        0        0     0.15     0.00      319        9     0.00     0.00       32        1        0       33
   16 344    47        0        0     0.15     0.00      319        9     0.00     0.00       32        1        0       33
   16 345    48        0        0     0.16     0.00      319        9     0.00     0.00       32        1        0       33
   16 346    49       27       31     0.16     0.00      320        9     0.00     0.00       32        1        0       33
   16 347    50       62       31     0.16     0.00      320        9     0.00     0.00       32        2        0       33
   16 348    51      132       94     0.16     0.00      320        9     0.00     0.00       32        2        0       34
   16 349    52      160      125     0.17     0.00      320        9     0.00     0.00       33        2        0       34
   16 350    53      226      156     0.17     0.00      320        9     0.00     0.00       33        2        0       35
   16 351    54      230      125     0.18     0.00      320        9     0.00     0.00       34        2        0       35
   16 352    55      204      156     0.18     0.00      321        9     0.00     0.00       34        2        0       36
   16 353    56      122       63     0.18     0.00      321        9     0.00     0.00       34        2        0       36
   16 354    57      110       94     0.18     0.00      321        9     0.00     0.00       35        2        0       37
   16 355    58       49       63     0.18     0.00      321       10     0.00     0.00       35        2        0       37
   16 356    59       13        0     0.19     0.00      321       10     0.00     0.00       35        2        0       37
   16 357    60        4        0     0.19     0.00      321       10     0.01     0.00       35        2        0       37
   16 358    61        0        0     0.19     0.00      321       10     0.01     0.00       35        2        0       37
   16 359    62        0        0     0.19     0.00      321       10     0.01     0.00       35        3        0       38
   16 360    63        9       31     0.19     0.00      321       10     0.01     0.00       35        3        0       38
   16 361    64       92       31     0.19     0.00      321       10     0.01     0.00       35        3        0       38
   16 362    65      327      188     0.19     0.00      321       10     0.01     0.00       36        3        0       39
   16 363    66      569      313     0.19     0.00      322       10     0.01     0.00       37        3        0       40
   16 364    67      702      469     0.20     0.00      323       11     0.01     0.00       39        3        0       42
   16 365    68      439      219     0.20     0.00      323       11     0.01     0.00       40        3        0       43
   16 366    69      107       63     0.20     0.00      323       11     0.01     0.00       40        3        0       43
   17 001    70        0        0     0.20     0.00      323       11     0.01     0.00       40        3        0       43
   17 002    71        0        0     0.21     0.00      323       11     0.01     0.00       40        3        0       43
   17 003    72        0        0     0.21     0.00      323       11     0.01     0.00       40        3        0       43
   17 004    73        0        0     0.21     0.00      323       11     0.01     0.00       40        4        0       43
   17 005    74        0        0     0.21     0.00      323       11     0.01     0.00       40        4        0       43
   17 006    75        0        0     0.21     0.00      323       11     0.01     0.00       40        4        0       44
   17 007    76        0        0     0.21     0.00      323       11     0.01     0.00       40        4        0       44
   17 008    77        0        0     0.21     0.00      323       11     0.01     0.00       40        4        0       44
   17 009    78        0        0     0.21     0.00      323       11     0.01     0.00       40        4        0       44
   17 010    79        0        0     0.20     0.00      323       11     0.01     0.00       40        4        0       44
   17 011    80        0        0     0.20     0.00      323       11     0.01     0.00       40        4        0       44
   17 012    81        0        0     0.20     0.00      323       11     0.01     0.00       40        4        0       44
   17 013    82        0        0     0.11     0.00      323       11     0.01     0.00       40        4        0       44
   17 014    83        0        0     0.16     0.00      323       11     0.01     0.00       40        4        0       44
   17 015    84        0        0     0.18     0.00      323       11     0.01     0.00       40        5        0       44
   17 016    85        0        0     0.19     0.00      323       11     0.01     0.00       40        5        0       44
   17 017    86        0        0     0.19     0.00      323       11     0.01     0.00       40        5        0       45
   17 018    87        0        0     0.19     0.00      323       11     0.01     0.00       40        5        0       45
   17 019    88        0        0     0.19     0.00      323       11     0.01     0.00       40        5        0       45
   17 020    89        0        0     0.19     0.00      323       11     0.01     0.00       40        5        0       45
   17 021    90        0        0     0.19     0.00      323       11     0.01     0.00       40        5        0       45
   17 022    91        0        0     0.19     0.00      323       11     0.01     0.00       40        5        0       45
   17 023    92        0        0     0.18     0.00      323       11     0.01     0.00       40        5        0       45
   17 024    93        0        0     0.18     0.00      323       11     0.01     0.00       40        5        0       45
   17 025    94        0        0     0.18     0.00      323       11     0.01     0.00       40        5        0       45
   17 026    95        0        0     0.18     0.00      323       11     0.01     0.00       40        6        0       45
   17 027    96        0        0     0.18     0.00      323       11     0.01     0.00       40        6        0       45
   17 028    97        0        0     0.17     0.00      323       11     0.01     0.00       40        6        0       45
   17 029    98        0        0     0.17     0.00      323       11     0.01     0.00       40        6        0       46
   17 030    99        0        0     0.17     0.00      323       11     0.01     0.00       40        6        0       46
   17 031   100        0        0     0.15     0.00      323       11     0.01     0.00       40        6        0       46
   17 032   101        0        0     0.08     0.00      323       11     0.01     0.00       40        6        0       46
   17 033   102        0        0     0.13     0.00      323       11     0.01     0.00       40        6        0       46
   17 034   103        0        0     0.18     0.00      323       11     0.01     0.00       40        6        0       46
   17 035   104        0        0     0.17     0.00      323       11     0.01     0.00       40        6        0       46
   17 036   105       10       31     0.25     0.00      323       11     0.01     0.00       40        6        0       46
   17 037   106       14        0     0.39     0.00      323       11     0.01     0.00       40        6        0       46
   17 038   107       19        0     0.56     0.00      323       11     0.01     0.00       40        7        0       47
   17 039   108       23       63     0.74     0.00      323       11     0.02     0.00       40        7        0       47
   17 040   109       13        0     0.90     0.00      323       11     0.02     0.00       40        7        0       48
   17 041   110        0        0     1.02     0.00      323       11     0.02     0.00       40        8        0       48
   17 042   111        0        0     1.10     0.00      323       11     0.02     0.00       40        8        0       49
   17 043   112        0        0     1.16     0.00      323       11     0.02     0.00       40        9        0       49
   17 044   113        0        0     1.17     0.00      323       11     0.02     0.00       40       10        0       50
   17 045   114        0        0     1.18     0.00      323       11     0.02     0.00       40       10        0       50
   17 046   115        0        0     1.17     0.00      323       11     0.02     0.00       40       11        0       51
   17 047   116        0        0     1.11     0.00      323       11     0.02     0.00       40       11        0       51
   17 048   117        0        0     1.04     0.00      323       11     0.02     0.00       40       12        0       52
   17 049   118        4        0     1.01     0.00      323       11     0.03     0.00       40       12        0       52
   17 050   119        4        0     1.07     0.00      323       11     0.03     0.00       40       13        0       53
   17 051   120        2        0     1.10     0.00      323       11     0.03     0.00       40       13        0       53
   17 052   121       23       31     1.12     0.00      323       11     0.03     0.00       40       14        0       54
   17 053   122       61        0     0.81     0.00      323       11     0.03     0.00       40       14        0       54
   17 054   123      402      250     1.18     0.00      324       11     0.03     0.00       41       15        0       56
   17 055   124    10539     -719     1.21     0.00      334       11     0.03     0.00       39       15        0       54
   17 056   125    13748    -1000     1.23     0.00      348       10     0.03     0.00       35       16        0       51
   17 057   126     9193     -406     1.24     0.00      357        9     0.03     0.00       33       16        0       50
   17 058   127     5356      -63     1.20     0.00      362        9     0.04     0.00       33       17        0       50
   17 059   128      750      219     1.14     0.00      363        9     0.04     0.00       34       17        0       51
   17 060   129       31       31     0.48     0.00      363        9     0.04     0.00       34       18        0       52
   17 061   130       31        0     0.37     0.00      363        9     0.04     0.00       34       18        0       52
   17 062   131       70       63     0.87     0.00      363        9     0.04     0.00       34       18        0       53
   17 063   132       51       31     0.81     0.00      363        9     0.04     0.00       34       19        0       53
   17 064   133      256      156     0.75     0.00      364       10     0.04     0.00       35       19        0       54
   17 065   134     2513      -63     0.68     0.00      366        9     0.04     0.00       35       19        0       54
   17 066   135     3808     -156     0.62     0.00      370        9     0.04     0.00       34       20        0       54
   17 067   136     2858     -125     0.56     0.00      373        9     0.04     0.00       34       20        0       54
   17 068   137     3390     -156     0.24     0.00      376        9     0.04     0.00       33       20        0       53
   17 069   138     1918       31     0.18     0.00      378        9     0.04     0.00       33       20        0       53
   17 070   139      174      125     0.41     0.00      378        9     0.04     0.00       34       20        0       54
   17 071   140       52       31     0.41     0.00      378        9     0.04     0.00       34       20        0       54
   17 072   141       75       94     0.37     0.00      378        9     0.04     0.00       34       21        0       55
   17 073   142       76       31     0.33     0.00      379        9     0.04     0.00       34       21        0       55
   17 074   143        9       31     0.30     0.00      379        9     0.04     0.00       34       21        0       55
   17 075   144       45        0     0.27     0.00      379        9     0.04     0.00       34       21        0       55
   17 076   145      674      125     0.25     0.00      379       10     0.05     0.00       35       21        0       56
   17 077   146     4091      -63     0.21     0.00      383        9     0.05     0.00       35       21        0       56
   17 078   147     7829     -281     0.18     0.00      391        9     0.05     0.00       34       21        0       55
   17 079   148    12823     -500     0.16     0.00      404        9     0.05     0.00       32       21        0       53
   17 080   149    15424     -531     0.15     0.00      419        8     0.05     0.00       30       21        0       51
   17 081   150    18277     -781     0.14     0.00      438        7     0.05     0.00       27       22        0       48
   17 082   151    16555     -750     0.12     0.00      454        7     0.05     0.00       24       22        0       46
   17 083   152    16445     -688     0.11     0.00      471        6     0.05     0.00       22       22        0       43
   17 084   153    12503     -406     0.11     0.00      483        6     0.05     0.00       20       22        0       42
   17 085   154    10170     -281     0.10     0.00      493        5     0.05     0.00       19       22        0       41
   17 086   155     6517      -94     0.10     0.00      500        5     0.05     0.00       19       22        0       41
   17 087   156     7066       31     0.09     0.00      507        5     0.05     0.00       19       22        0       41
   17 088   157     6127      188     0.09     0.00      513        5     0.05     0.00       20       22        0       41
   17 089   158     8108      438     0.09     0.00      521        6     0.05     0.00       21       22        0       43
   17 090   159     8524      781     0.09     0.00      530        7     0.05     0.00       24       22        0       46
   17 091   160    11312     1188     0.08     0.00      541        8     0.05     0.00       28       22        0       50
   17 092   161    12145     1656     0.08     0.00      553        9     0.05     0.00       35       22        0       57
   17 093   162    13149     2063     0.08     0.00      566       11     0.05     0.00       42       22        0       64
   17 094   163    14774     1719     0.07     0.00      581       13     0.05     0.00       48       22        0       70
   17 095   164    13367     1563     0.07     0.00      594       15     0.05     0.00       54       22        0       76
   17 096   165    11279     1313     0.07     0.00      606       16     0.05     0.00       59       22        0       81
   17 097   166     8462      875     0.07     0.00      614       17     0.05     0.00       62       22        0       84
   17 098   167     6500      750     0.07     0.00      621       18     0.05     0.00       65       22        0       87
   17 099   168     5787      906     0.08     0.00      626       19     0.05     0.00       68       22        0       90
   17 100   169     6598     1156     0.08     0.00      633       20     0.05     0.00       72       22        0       95
   17 101   170     7776     1688     0.08     0.00      641       21     0.05     0.00       79       22        0      101
   17 102   171     7881     1844     0.08     0.00      649       23     0.05     0.00       85       22        0      108
   17 103   172     7687     1875     0.08     0.00      656       25     0.05     0.00       92       22        0      115
   17 104   173     7258     1781     0.09     0.00      664       27     0.05     0.00       99       22        0      121
   17 105   174     6164     1563     0.09     0.00      670       29     0.05     0.00      105       22        0      127
   17 106   175     5685     1250     0.09     0.00      676       30     0.05     0.00      109       23        0      132
   17 107   176     6689      969     0.09     0.00      682       31     0.05     0.00      113       23        0      135
   17 108   177     6657      656     0.06     0.00      689       31     0.05     0.00      115       23        0      138
   17 109   178     4820      125     0.04     0.00      694       32     0.05     0.00      116       23        0      138
   17 110   179     1901      -94     0.08     0.00      696       31     0.05     0.00      115       23        0      138
   17 111   180        0        0     0.11     0.00      696       31     0.05     0.00      115       23        0      138
   17 112   181        0        0     0.11     0.00      696       31     0.05     0.00      115       23        0      138
   17 113   182        0        0     0.09     0.00      696       31     0.05     0.00      115       23        0      138
   17 114   183        0        0     0.12     0.00      696       31     0.05     0.00      115       23        0      138
   17 115   184        0        0     0.12     0.00      696       31     0.05     0.00      115       23        0      138
   17 116   185      687      281     0.05     0.00      696       32     0.05     0.00      116       23        0      139
   17 117   186      486      188     0.04     0.00      697       32     0.05     0.00      117       23        0      140
   17 118   187        0        0     0.04     0.00      697       32     0.05     0.00      117       23        0      140
   17 119   188        0        0     0.04     0.00      697       32     0.05     0.00      117       23        0      140
   17 120   189        0        0     0.09     0.00      697       32     0.05     0.00      117       23        0      140
   17 121   190        0        0     0.14     0.00      697       32     0.05     0.00      117       23        0      140
   17 122   191      532      281     0.05     0.00      697       32     0.05     0.00      118       23        0      141
   17 123   192     2037     1219     0.09     0.00      699       33     0.05     0.00      122       23        0      146
   17 124   193     3894     2094     0.13     0.00      703       35     0.05     0.00      130       23        0      153
   17 125   194     4816     2344     0.14     0.00      708       38     0.05     0.00      139       23        0      162
   17 126   195     5677     2750     0.15     0.00      714       41     0.05     0.00      149       23        0      172
   17 127   196     6792     3250     0.16     0.00      721       44     0.05     0.00      161       23        0      184
   17 128   197     7364     3438     0.05     0.00      728       47     0.05     0.00      173       23        0      197
   17 129   198     7507     3250     0.05     0.00      735       51     0.05     0.00      185       23        0      209
   17 130   199     7578     2750     0.12     0.00      743       53     0.05     0.00      195       24        0      219
   17 131   200     6856     2500     0.18     0.00      750       56     0.05     0.00      205       24        0      228
   17 132   201     6246     2563     0.19     0.00      756       58     0.05     0.00      214       24        0      238
   17 133   202     7076     3313     0.20     0.00      763       62     0.05     0.00      226       24        0      250
   17 134   203     8396     4094     0.21     0.00      772       66     0.05     0.00      241       24        0      265
   17 135   204    10055     4938     0.07     0.00      782       71     0.05     0.00      259       24        0      283
   17 136   205    11917     5281     0.08     0.00      794       76     0.05     0.00      279       24        0      303
   17 137   206    13069     5375     0.17     0.00      807       81     0.05     0.00      298       24        0      322
   17 138   207    12679     5313     0.23     0.00      819       87     0.05     0.00      318       24        0      342
   17 139   208    12789     5750     0.24     0.00      832       92     0.05     0.00      339       24        0      363
   17 140   209    12989     6000     0.25     0.00      845       98     0.05     0.00      361       24        0      385
   17 141   210    12517     5688     0.26     0.00      858      104     0.05     0.00      382       25        0      406
   17 142   211    12137     5344     0.27     0.00      870      109     0.05     0.00      402       25        0      426
   17 143   212    12071     5281     0.29     0.00      882      115     0.05     0.00      421       25        0      446
   17 144   213    11840     4906     0.30     0.00      894      120     0.05     0.00      439       25        0      464
   17 145   214    19400     2719     1.10     0.00      913      122     0.05     0.00      449       25        0      474
   17 146   215    19366     3094     1.90     0.00      932      125     0.06     0.00      460       26        0      487
   17 147   216    18472     3750     2.53     0.00      951      129     0.06     0.00      474       28        0      502
   17 148   217    17063     4313     2.87     0.00      968      133     0.06     0.00      490       29        0      519
   17 149   218    15810     4781     2.98     0.00      984      138     0.06     0.00      507       30        0      538
   17 150   219    15535     5813     2.96     0.00      999      144     0.07     0.00      529       32        0      560
   17 151   220    35107     2781     2.64     0.00     1034      147     0.07     0.00      539       33        0      572
   17 152   221    39754     2531     2.61     0.00     1074      149     0.07     0.00      548       34        0      582
   17 153   222    35426     3906     2.51     0.00     1110      153     0.08     0.00      563       35        0      598
   17 154   223    30977     4719     2.37     0.00     1141      158     0.08     0.00      580       36        0      616
   17 155   224    61493    -2469     1.49     0.00     1202      156     0.08     0.00      571       37        0      608
   17 156   225    53060    -1875     1.75     0.00     1255      154     0.08     0.00      564       38        0      602
   17 157   226    50734    -2094     1.50     0.00     1306      152     0.08     0.00      556       39        0      595
   17 158   227    46913    -2250     0.65     0.00     1353      149     0.08     0.00      548       39        0      587
   17 159   228    41411    -2344     1.08     0.00     1394      147     0.08     0.00      539       39        0      579
   17 160   229    30471     -688     1.10     0.00     1425      146     0.09     0.00      537       40        0      577
   17 161   230    29398     -250     0.69     0.00     1454      146     0.09     0.00      536       40        0      576
   17 162   231    25820      688     0.91     0.00     1480      147     0.09     0.00      538       41        0      579
   17 163   232    22239     2188     0.82     0.00     1502      149     0.09     0.00      546       41        0      588
   17 164   233    22964     2938     0.76     0.00     1525      152     0.09     0.00      557       41        0      599
   17 165   234    25473     2563     1.85     0.00     1550      154     0.09     0.00      567       42        0      609
   17 166   235    25740     2250     2.61     0.00     1576      157     0.09     0.00      575       43        0      618
   17 167   236    30489     1469     3.11     0.00     1607      158     0.10     0.00      580       45        0      625
   17 168   237    23714     2531     3.61     0.00     1630      161     0.10     0.00      590       47        0      636
   17 169   238    18534     3000     3.63     0.00     1649      164     0.10     0.00      601       48        0      649
   17 170   239    14237     3438     3.44     0.00     1663      167     0.11     0.00      613       50        0      663
   17 171   240    12816     3625     3.09     0.00     1676      171     0.11     0.00      627       51        0      678
   17 172   241    11681     3813     2.80     0.00     1688      175     0.11     0.00      641       53        0      693
   17 173   242    10024     4344     2.60     0.00     1698      179     0.12     0.00      656       54        0      710
   17 174   243    21343     2531     2.24     0.00     1719      181     0.12     0.00      666       55        0      721
   17 175   244    15131     4125     2.36     0.00     1734      186     0.12     0.00      681       56        0      737
   17 176   245    10273     4969     2.28     0.00     1744      191     0.12     0.00      699       57        0      756
   17 177   246     9957     4531     2.01     0.00     1754      195     0.12     0.00      716       58        0      774
   17 178   247    17136     2969     1.70     0.00     1772      198     0.13     0.00      727       59        0      786
   17 179   248    28917      281     1.55     0.00     1800      198     0.13     0.00      728       60        0      787
   17 180   249    49547    -4000     1.00     0.00     1850      194     0.13     0.00      713       60        0      773
   17 181   250    49936    -4250     1.40     0.00     1900      190     0.13     0.00      697       61        0      758
   17 182   251    41457    -2188     1.30     0.00     1941      188     0.13     0.00      689       61        0      751
   17 183   252    32181     -719     1.22     0.00     1974      187     0.13     0.00      687       62        0      749
   17 184   253    25645      125     1.15     0.00     1999      187     0.13     0.00      687       62        0      750
   17 185   254    20926      781     1.10     0.00     2020      188     0.13     0.00      690       63        0      753
   17 186   255    16366     1656     1.06     0.00     2037      190     0.14     0.00      696       63        0      760
   17 187   256    12208     2531     1.01     0.00     2049      192     0.14     0.00      705       64        0      769
   17 188   257     8824     3344     0.93     0.00     2058      196     0.14     0.00      718       64        0      782
   17 189   258     7464     3906     0.87     0.00     2065      199     0.14     0.00      732       65        0      797
   17 190   259     5782     4469     0.85     0.00     2071      204     0.14     0.00      748       65        0      814
   17 191   260    49533    -3875     0.22     0.00     2120      200     0.14     0.00      734       65        0      800
   17 192   261    51109    -3531     0.47     0.00     2171      197     0.14     0.00      721       65        0      787
   17 193   262    49507    -3156     0.65     0.00     2221      193     0.14     0.00      710       66        0      775
   17 194   263    46539    -2719     0.70     0.00     2268      191     0.14     0.00      700       66        0      766
   17 195   264    37357    -1250     0.82     0.00     2305      189     0.14     0.00      695       67        0      762
   17 196   265    35640    -1344     0.50     0.00     2341      188     0.14     0.00      690       67        0      757
   17 197   266    31196     -813     0.85     0.00     2372      187     0.14     0.00      687       67        0      754
   17 198   267    25731       63     0.85     0.00     2397      187     0.14     0.00      687       68        0      755
   17 199   268    21246      938     0.88     0.00     2419      188     0.15     0.00      691       68        0      759
   17 200   269    17611     1875     0.93     0.00     2436      190     0.15     0.00      698       68        0      766
   17 201   270    16477     2531     0.89     0.00     2453      193     0.15     0.00      707       69        0      776
   17 202   271    15075     3000     0.85     0.00     2468      196     0.15     0.00      718       69        0      787
   17 203   272    13926     3406     0.84     0.00     2482      199     0.15     0.00      731       70        0      800
   17 204   273    13220     3594     0.82     0.00     2495      203     0.15     0.00      744       70        0      814
   17 205   274    11700     3750     0.81     0.00     2507      206     0.15     0.00      758       70        0      828
   17 206   275    14716     2625     0.72     0.00     2521      209     0.15     0.00      767       71        0      838
   17 207   276    29717     -250     0.36     0.00     2551      209     0.15     0.00      766       71        0      837
   17 208   277    23963     1406     0.28     0.00     2575      210     0.15     0.00      771       71        0      842
   17 209   278    21932     1406     0.34     0.00     2597      212     0.15     0.00      777       71        0      848
   17 210   279    22357     1531     0.69     0.00     2619      213     0.15     0.00      782       71        0      854
   17 211   280    22523     1938     0.71     0.00     2642      215     0.15     0.00      789       72        0      861
   17 212   281    25324     2313     0.73     0.00     2667      217     0.15     0.00      798       72        0      870
   17 213   282    26349     3156     0.77     0.00     2694      221     0.15     0.00      809       73        0      882
   17 214   283    37964     2063     0.71     0.00     2732      223     0.16     0.00      817       73        0      890
   17 215   284    33959     3625     0.79     0.00     2765      226     0.16     0.00      830       73        0      903
   17 216   285    39514     3094     0.80     0.00     2805      229     0.16     0.00      842       74        0      915
   17 217   286    34589     4094     0.89     0.00     2840      233     0.16     0.00      857       74        0      931
   17 218   287    30903     4750     0.98     0.00     2870      238     0.16     0.00      874       74        0      948
   17 219   288    25983     4813     1.02     0.00     2896      243     0.16     0.00      892       75        0      967

*DSSAT Cropping System Model Ver. 4.8.5.000 -release  MAR 01, 2026 09:34:40

*RUN   2        : 2                         WHAPS048 TUDU1701    2
 MODEL          : WHAPS048 - Wheat
 EXPERIMENT     : TUDU1701 WH
 DATA PATH      :
 TREATMENT  2   : 2                         WHAPS048
  
!               |---------- Daily (g/ha) ----------|------- Cumulative (kg/ha) --------|---- Cum CO2-equiv kg[CO2eq]/ha ---|
!               Soil CO2  Net CO2      N2O      CH4 Soil CO2  Net CO2      N2O      CH4  Net CO2      N2O      CH4    Total
!                g[C]/ha  g[C]/ha  g[N]/ha  g[C]/ha kg[C]/ha kg[C]/ha kg[N]/ha kg[C]/ha    CO2eq    CO2eq    CO2eq    CO2eq
@YEAR DOY   DAS   CO2GED   CO2END   N2OGED   CH4GED    CO2EC   CO2ENC    N2OEC    CH4EC    CCEQC    NCEQC    MCEQC    TCEQC
   16 298     1    41008    -2563     0.01     0.00       41       -3     0.00     0.00       -9        0        0       -9
   16 299     2    42719    -2969     0.01     0.00       84       -6     0.00     0.00      -20        0        0      -20
   16 300     3    41054    -2781     0.01     0.00      125       -8     0.00     0.00      -31        0        0      -30
   16 301     4    36023    -2188     0.01     0.00      161      -11     0.00     0.00      -39        0        0      -39
   16 302     5    27793    -1125     0.01     0.00      189      -12     0.00     0.00      -43        0        0      -43
   16 303     6    20213     -375     0.01     0.00      209      -12     0.00     0.00      -44        0        0      -44
   16 304     7    14628      125     0.02     0.00      223      -12     0.00     0.00      -44        0        0      -44
   16 305     8     9542      625     0.02     0.00      233      -11     0.00     0.00      -41        0        0      -41
   16 306     9     6445      813     0.03     0.00      239      -10     0.00     0.00      -38        0        0      -38
   16 307    10     4063      969     0.03     0.00      243       -9     0.00     0.00      -35        0        0      -35
   16 308    11     3990      969     0.03     0.00      247       -9     0.00     0.00      -31        0        0      -31
   16 309    12     1890      938     0.04     0.00      249       -8     0.00     0.00      -28        0        0      -28
   16 310    13     1368      688     0.04     0.00      251       -7     0.00     0.00      -25        0        0      -25
   16 311    14     1671      813     0.03     0.00      252       -6     0.00     0.00      -22        0        0      -22
   16 312    15     1855      906     0.01     0.00      254       -5     0.00     0.00      -19        0        0      -19
   16 313    16     1138      594     0.03     0.00      255       -5     0.00     0.00      -17        0        0      -17
   16 314    17      977      531     0.04     0.00      256       -4     0.00     0.00      -15        0        0      -15
   16 315    18      971      563     0.03     0.00      257       -3     0.00     0.00      -13        0        0      -13
   16 316    19      736      438     0.02     0.00      258       -3     0.00     0.00      -11        0        0      -11
   16 317    20      629      344     0.02     0.00      259       -3     0.00     0.00      -10        0        0      -10
   16 318    21      617      344     0.04     0.00      259       -2     0.00     0.00       -9        0        0       -8
   16 319    22      503      281     0.05     0.00      260       -2     0.00     0.00       -8        0        0       -7
   16 320    23      339      250     0.06     0.00      260       -2     0.00     0.00       -7        0        0       -6
   16 321    24      228      125     0.03     0.00      260       -2     0.00     0.00       -6        0        0       -6
   16 322    25      375      219     0.02     0.00      261       -1     0.00     0.00       -5        0        0       -5
   16 323    26      778      438     0.05     0.00      262       -1     0.00     0.00       -4        0        0       -3
   16 324    27     1833      875     0.02     0.00      263        0     0.00     0.00       -1        0        0        0
   16 325    28     4259      938     0.02     0.00      268        1     0.00     0.00        3        0        0        3
   16 326    29     6151      844     0.06     0.00      274        2     0.00     0.00        6        0        0        6
   16 327    30     6564      906     0.08     0.00      280        3     0.00     0.00        9        0        0       10
   16 328    31     6780      813     0.08     0.00      287        3     0.00     0.00       12        0        0       13
   16 329    32     5120      844     0.08     0.00      292        4     0.00     0.00       15        0        0       16
   16 330    33     6812      906     0.09     0.00      299        5     0.00     0.00       19        1        0       19
   16 331    34     8428      719     0.09     0.00      307        6     0.00     0.00       21        1        0       22
   16 332    35     7034      781     0.10     0.00      315        7     0.00     0.00       24        1        0       25
   16 333    36     3231      969     0.10     0.00      318        8     0.00     0.00       28        1        0       28
   16 334    37     1106      594     0.11     0.00      319        8     0.00     0.00       30        1        0       31
   16 335    38      401      250     0.11     0.00      319        8     0.00     0.00       31        1        0       32
   16 336    39      105       63     0.12     0.00      319        8     0.00     0.00       31        1        0       32
   16 337    40       47       31     0.12     0.00      319        9     0.00     0.00       31        1        0       32
   16 338    41       36       63     0.12     0.00      319        9     0.00     0.00       31        1        0       32
   16 339    42       24        0     0.13     0.00      319        9     0.00     0.00       31        1        0       32
   16 340    43       17       31     0.13     0.00      320        9     0.00     0.00       32        1        0       33
   16 341    44       18        0     0.14     0.00      320        9     0.00     0.00       32        1        0       33
   16 342    45        0        0     0.14     0.00      320        9     0.00     0.00       32        1        0       33
   16 343    46        0        0     0.15     0.00      320        9     0.00     0.00       32        1        0       33
   16 344    47        0        0     0.15     0.00      320        9     0.00     0.00       32        1        0       33
   16 345    48        0        0     0.16     0.00      320        9     0.00     0.00       32        1        0       33
   16 346    49       27       31     0.16     0.00      320        9     0.00     0.00       32        1        0       33
   16 347    50       62       31     0.16     0.00      320        9     0.00     0.00       32        2        0       33
   16 348    51      132       94     0.16     0.00      320        9     0.00     0.00       32        2        0       34
   16 349    52      160      125     0.17     0.00      320        9     0.00     0.00       33        2        0       34
   16 350    53      226      125     0.17     0.00      320        9     0.00     0.00       33        2        0       35
   16 351    54      230      156     0.18     0.00      320        9     0.00     0.00       34        2        0       35
   16 352    55      204      125     0.18     0.00      321        9     0.00     0.00       34        2        0       36
   16 353    56      122       63     0.18     0.00      321        9     0.00     0.00       34        2        0       36
   16 354    57      110       94     0.18     0.00      321        9     0.00     0.00       35        2        0       37
   16 355    58       49       31     0.18     0.00      321        9     0.00     0.00       35        2        0       37
   16 356    59       13        0     0.19     0.00      321        9     0.00     0.00       35        2        0       37
   16 357    60        4        0     0.19     0.00      321        9     0.01     0.00       35        2        0       37
   16 358    61        0        0     0.19     0.00      321        9     0.01     0.00       35        2        0       37
   16 359    62        0        0     0.19     0.00      321        9     0.01     0.00       35        3        0       37
   16 360    63        9       31     0.19     0.00      321       10     0.01     0.00       35        3        0       38
   16 361    64       92       63     0.19     0.00      321       10     0.01     0.00       35        3        0       38
   16 362    65      327      219     0.19     0.00      321       10     0.01     0.00       36        3        0       39
   16 363    66      569      281     0.19     0.00      322       10     0.01     0.00       37        3        0       40
   16 364    67      702      469     0.20     0.00      323       11     0.01     0.00       39        3        0       42
   16 365    68      439      250     0.20     0.00      323       11     0.01     0.00       40        3        0       43
   16 366    69      107       63     0.20     0.00      323       11     0.01     0.00       40        3        0       43
   17 001    70        0        0     0.20     0.00      323       11     0.01     0.00       40        3        0       43
   17 002    71        0        0     0.21     0.00      323       11     0.01     0.00       40        3        0       43
   17 003    72        0        0     0.21     0.00      323       11     0.01     0.00       40        3        0       43
   17 004    73        0        0     0.21     0.00      323       11     0.01     0.00       40        4        0       43
   17 005    74        0        0     0.21     0.00      323       11     0.01     0.00       40        4        0       43
   17 006    75        0        0     0.21     0.00      323       11     0.01     0.00       40        4        0       44
   17 007    76        0        0     0.21     0.00      323       11     0.01     0.00       40        4        0       44
   17 008    77        0        0     0.21     0.00      323       11     0.01     0.00       40        4        0       44
   17 009    78        0        0     0.21     0.00      323       11     0.01     0.00       40        4        0       44
   17 010    79        0        0     0.20     0.00      323       11     0.01     0.00       40        4        0       44
   17 011    80        0        0     0.20     0.00      323       11     0.01     0.00       40        4        0       44
   17 012    81        0        0     0.20     0.00      323       11     0.01     0.00       40        4        0       44
   17 013    82        0        0     0.11     0.00      323       11     0.01     0.00       40        4        0       44
   17 014    83        0        0     0.16     0.00      323       11     0.01     0.00       40        4        0       44
   17 015    84        0        0     0.18     0.00      323       11     0.01     0.00       40        5        0       44
   17 016    85        0        0     0.19     0.00      323       11     0.01     0.00       40        5        0       44
   17 017    86        0        0     0.19     0.00      323       11     0.01     0.00       40        5        0       45
   17 018    87        0        0     0.19     0.00      323       11     0.01     0.00       40        5        0       45
   17 019    88        0        0     0.19     0.00      323       11     0.01     0.00       40        5        0       45
   17 020    89        0        0     0.19     0.00      323       11     0.01     0.00       40        5        0       45
   17 021    90        0        0     0.19     0.00      323       11     0.01     0.00       40        5        0       45
   17 022    91        0        0     0.19     0.00      323       11     0.01     0.00       40        5        0       45
   17 023    92        0        0     0.18     0.00      323       11     0.01     0.00       40        5        0       45
   17 024    93        0        0     0.18     0.00      323       11     0.01     0.00       40        5        0       45
   17 025    94        0        0     0.18     0.00      323       11     0.01     0.00       40        5        0       45
   17 026    95        0        0     0.18     0.00      323       11     0.01     0.00       40        6        0       45
   17 027    96        0        0     0.18     0.00      323       11     0.01     0.00       40        6        0       45
   17 028    97        0        0     0.17     0.00      323       11     0.01     0.00       40        6        0       45
   17 029    98        0        0     0.17     0.00      323       11     0.01     0.00       40        6        0       46
   17 030    99        0        0     0.17     0.00      323       11     0.01     0.00       40        6        0       46
   17 031   100        0        0     0.15     0.00      323       11     0.01     0.00       40        6        0       46
   17 032   101        0        0     0.08     0.00      323       11     0.01     0.00       40        6        0       46
   17 033   102        0        0     0.13     0.00      323       11     0.01     0.00       40        6        0       46
   17 034   103        0        0     0.18     0.00      323       11     0.01     0.00       40        6        0       46
   17 035   104        0        0     0.17     0.00      323       11     0.01     0.00       40        6        0       46
   17 036   105       10       31     0.45     0.00      323       11     0.01     0.00       40        6        0       46
   17 037   106       14        0     0.67     0.00      323       11     0.01     0.00       40        7        0       47
   17 038   107       19        0     0.83     0.00      323       11     0.02     0.00       40        7        0       47
   17 039   108       23       63     0.96     0.00      323       11     0.02     0.00       40        8        0       48
   17 040   109       13        0     1.04     0.00      323       11     0.02     0.00       40        8        0       48
   17 041   110        0        0     1.08     0.00      323       11     0.02     0.00       40        9        0       49
   17 042   111        0        0     1.09     0.00      323       11     0.02     0.00       40        9        0       49
   17 043   112        0        0     1.09     0.00      323       11     0.02     0.00       40       10        0       50
   17 044   113        0        0     1.05     0.00      323       11     0.02     0.00       40       10        0       50
   17 045   114        0        0     1.02     0.00      323       11     0.02     0.00       40       11        0       51
   17 046   115        0        0     0.99     0.00      323       11     0.02     0.00       40       11        0       51
   17 047   116        0        0     0.92     0.00      323       11     0.02     0.00       40       11        0       52
   17 048   117        0        0     0.83     0.00      323       11     0.03     0.00       40       12        0       52
   17 049   118        4        0     0.78     0.00      323       11     0.03     0.00       40       12        0       52
   17 050   119        4        0     0.80     0.00      323       11     0.03     0.00       40       13        0       53
   17 051   120        2        0     0.81     0.00      323       11     0.03     0.00       40       13        0       53
   17 052   121       23       31     0.81     0.00      323       11     0.03     0.00       40       13        0       54
   17 053   122       61        0     0.58     0.00      323       11     0.03     0.00       40       14        0       54
   17 054   123      402      219     0.83     0.00      324       11     0.03     0.00       41       14        0       55
   17 055   124    10610     -719     0.84     0.00      334       10     0.03     0.00       38       14        0       53
   17 056   125    13846    -1000     0.84     0.00      348        9     0.03     0.00       35       15        0       49
   17 057   126     9263     -438     0.85     0.00      357        9     0.03     0.00       33       15        0       48
   17 058   127     5396      -94     0.81     0.00      363        9     0.03     0.00       33       16        0       48
   17 059   128      753      219     0.77     0.00      364        9     0.03     0.00       34       16        0       49
   17 060   129       31       31     0.33     0.00      364        9     0.03     0.00       34       16        0       50
   17 061   130       31        0     0.25     0.00      364        9     0.03     0.00       34       16        0       50
   17 062   131       70       94     0.58     0.00      364        9     0.04     0.00       34       16        0       50
   17 063   132       51       31     0.54     0.00      364        9     0.04     0.00       34       17        0       51
   17 064   133      256      125     0.50     0.00      364        9     0.04     0.00       35       17        0       52
   17 065   134     2513      -31     0.45     0.00      367        9     0.04     0.00       35       17        0       52
   17 066   135     3804     -188     0.41     0.00      370        9     0.04     0.00       34       17        0       51
   17 067   136     2856      -94     0.37     0.00      373        9     0.04     0.00       33       17        0       51
   17 068   137     3385     -156     0.16     0.00      377        9     0.04     0.00       33       18        0       50
   17 069   138     1909       31     0.12     0.00      378        9     0.04     0.00       33       18        0       51
   17 070   139      174      125     0.27     0.00      379        9     0.04     0.00       33       18        0       51
   17 071   140       52       31     0.27     0.00      379        9     0.04     0.00       34       18        0       51
   17 072   141       75       94     0.24     0.00      379        9     0.04     0.00       34       18        0       52
   17 073   142       76       31     0.22     0.00      379        9     0.04     0.00       34       18        0       52
   17 074   143        9       31     0.20     0.00      379        9     0.04     0.00       34       18        0       52
   17 075   144       45        0     0.18     0.00      379        9     0.04     0.00       34       18        0       52
   17 076   145      673       94     0.17     0.00      380        9     0.04     0.00       35       18        0       53
   17 077   146     4078      -31     0.15     0.00      384        9     0.04     0.00       34       18        0       53
   17 078   147     7770     -281     0.13     0.00      391        9     0.04     0.00       33       18        0       52
   17 079   148    12760     -469     0.12     0.00      404        9     0.04     0.00       32       19        0       50
   17 080   149    15379     -563     0.12     0.00      420        8     0.04     0.00       30       19        0       48
   17 081   150    18237     -719     0.11     0.00      438        7     0.04     0.00       27       19        0       46
   17 082   151    16532     -750     0.10     0.00      454        7     0.04     0.00       24       19        0       43
   17 083   152    16442     -688     0.10     0.00      471        6     0.04     0.00       22       19        0       40
   17 084   153    12509     -438     0.09     0.00      483        5     0.04     0.00       20       19        0       39
   17 085   154    10178     -250     0.09     0.00      493        5     0.04     0.00       19       19        0       38
   17 086   155     6526      -94     0.09     0.00      500        5     0.04     0.00       19       19        0       38
   17 087   156     7077        0     0.09     0.00      507        5     0.04     0.00       19       19        0       38
   17 088   157     6135      219     0.09     0.00      513        5     0.04     0.00       20       19        0       39
   17 089   158     8117      438     0.09     0.00      521        6     0.04     0.00       21       19        0       40
   17 090   159     8508      750     0.09     0.00      530        7     0.04     0.00       24       19        0       43
   17 091   160    11293     1188     0.08     0.00      541        8     0.04     0.00       28       19        0       47
   17 092   161    12130     1656     0.08     0.00      553        9     0.04     0.00       34       19        0       53
   17 093   162    13134     2063     0.08     0.00      566       11     0.04     0.00       42       19        0       61
   17 094   163    14407     1813     0.07     0.00      581       13     0.04     0.00       49       19        0       68
   17 095   164    13081     1656     0.07     0.00      594       15     0.04     0.00       55       19        0       74
   17 096   165    11054     1313     0.07     0.00      605       16     0.04     0.00       60       19        0       79
   17 097   166     8324      906     0.07     0.00      613       17     0.04     0.00       63       19        0       82
   17 098   167     6492      750     0.07     0.00      620       18     0.04     0.00       66       19        0       85
   17 099   168     5779      906     0.08     0.00      625       19     0.04     0.00       69       19        0       88
   17 100   169     6590     1188     0.08     0.00      632       20     0.04     0.00       73       19        0       93
   17 101   170     7757     1688     0.08     0.00      640       22     0.04     0.00       79       19        0       99
   17 102   171     7860     1844     0.08     0.00      648       24     0.04     0.00       86       19        0      106
   17 103   172     7665     1875     0.08     0.00      655       25     0.04     0.00       93       19        0      113
   17 104   173     7235     1750     0.09     0.00      663       27     0.04     0.00      100       20        0      119
   17 105   174     6143     1594     0.09     0.00      669       29     0.04     0.00      105       20        0      125
   17 106   175     5667     1250     0.09     0.00      674       30     0.04     0.00      110       20        0      130
   17 107   176     6671     1000     0.09     0.00      681       31     0.04     0.00      114       20        0      133
   17 108   177     6499      656     0.06     0.00      688       32     0.04     0.00      116       20        0      136
   17 109   178     4807       94     0.04     0.00      692       32     0.04     0.00      116       20        0      136
   17 110   179     1906      -63     0.08     0.00      694       32     0.04     0.00      116       20        0      136
   17 111   180        0        0     0.11     0.00      694       32     0.04     0.00      116       20        0      136
   17 112   181        0        0     0.11     0.00      694       32     0.04     0.00      116       20        0      136
   17 113   182        0        0     0.09     0.00      694       32     0.04     0.00      116       20        0      136
   17 114   183        0        0     0.12     0.00      694       32     0.04     0.00      116       20        0      136
   17 115   184        0        0     0.12     0.00      694       32     0.04     0.00      116       20        0      136
   17 116   185      664      313     0.05     0.00      695       32     0.04     0.00      117       20        0      137
   17 117   186      478      156     0.04     0.00      695       32     0.04     0.00      118       20        0      138
   17 118   187        0        0     0.04     0.00      695       32     0.04     0.00      118       20        0      138
   17 119   188        0        0     0.04     0.00      695       32     0.04     0.00      118       20        0      138
   17 120   189        0        0     0.09     0.00      695       32     0.04     0.00      118       20        0      138
   17 121   190        0        0     0.14     0.00      695       32     0.04     0.00      118       20        0      138
   17 122   191      533      281     0.05     0.00      696       32     0.04     0.00      119       20        0      139
   17 123   192     2038     1188     0.09     0.00      698       34     0.04     0.00      123       20        0      144
   17 124   193     3895     2125     0.13     0.00      702       36     0.04     0.00      131       20        0      151
   17 125   194     4820     2344     0.14     0.00      707       38     0.04     0.00      140       20        0      160
   17 126   195     5684     2750     0.15     0.00      712       41     0.04     0.00      150       20        0      170
   17 127   196     6799     3281     0.16     0.00      719       44     0.04     0.00      162       21        0      182
   17 128   197     7370     3406     0.05     0.00      727       48     0.04     0.00      174       21        0      195
   17 129   198     7511     3250     0.05     0.00      734       51     0.04     0.00      186       21        0      207
   17 130   199     7582     2750     0.12     0.00      742       54     0.04     0.00      196       21        0      217
   17 131   200     6870     2500     0.18     0.00      749       56     0.04     0.00      206       21        0      226
   17 132   201     6264     2563     0.19     0.00      755       59     0.04     0.00      215       21        0      236
   17 133   202     7083     3313     0.20     0.00      762       62     0.04     0.00      227       21        0      248
   17 134   203     8401     4063     0.21     0.00      770       66     0.04     0.00      242       21        0      263
   17 135   204    10060     4969     0.07     0.00      780       71     0.04     0.00      260       21        0      281
   17 136   205    11921     5281     0.08     0.00      792       76     0.04     0.00      280       21        0      301
   17 137   206    13075     5344     0.17     0.00      805       82     0.05     0.00      299       21        0      320
   17 138   207    12701     5313     0.23     0.00      818       87     0.05     0.00      319       21        0      340
   17 139   208    12805     5750     0.24     0.00      831       93     0.05     0.00      340       21        0      361
   17 140   209    12998     6000     0.25     0.00      844       99     0.05     0.00      362       21        0      383
   17 141   210    12528     5719     0.26     0.00      856      104     0.05     0.00      383       22        0      404
   17 142   211    12147     5313     0.28     0.00      869      110     0.05     0.00      402       22        0      424
   17 143   212    12082     5281     0.29     0.00      881      115     0.05     0.00      422       22        0      444
   17 144   213    11849     4906     0.30     0.00      892      120     0.05     0.00      440       22        0      462
   17 145   214    19441     2719     1.16     0.00      912      123     0.05     0.00      450       23        0      472
   17 146   215    19405     3063     1.75     0.00      931      126     0.05     0.00      461       23        0      484
   17 147   216    18503     3750     2.15     0.00      950      129     0.05     0.00      475       24        0      499
   17 148   217    17078     4313     2.32     0.00      967      134     0.05     0.00      491       25        0      516
   17 149   218    15825     4781     2.35     0.00      983      138     0.06     0.00      508       27        0      535
   17 150   219    15566     5813     2.30     0.00      998      144     0.06     0.00      529       28        0      557
   17 151   220    35106     2750     1.99     0.00     1033      147     0.06     0.00      539       29        0      568
   17 152   221    41221     2156     1.93     0.00     1075      149     0.06     0.00      547       29        0      577
   17 153   222    36571     3563     1.83     0.00     1111      153     0.06     0.00      560       30        0      591
   17 154   223    31947     4406     1.72     0.00     1143      157     0.07     0.00      577       31        0      608
   17 155   224    61289    -2469     1.09     0.00     1204      155     0.07     0.00      568       32        0      599
   17 156   225    52981    -1906     1.29     0.00     1257      153     0.07     0.00      561       32        0      593
   17 157   226    50497    -2094     1.12     0.00     1308      151     0.07     0.00      553       33        0      586
   17 158   227    46682    -2188     0.50     0.00     1355      148     0.07     0.00      545       33        0      578
   17 159   228    41244    -2313     0.83     0.00     1396      146     0.07     0.00      536       33        0      570
   17 160   229    31486    -1063     0.87     0.00     1427      145     0.07     0.00      532       34        0      566
   17 161   230    29893     -344     0.55     0.00     1457      145     0.07     0.00      531       34        0      565
   17 162   231    25857      656     0.75     0.00     1483      145     0.07     0.00      534       34        0      568
   17 163   232    22215     2188     0.69     0.00     1505      148     0.07     0.00      542       35        0      576
   17 164   233    23000     2906     0.65     0.00     1528      151     0.07     0.00      552       35        0      587
   17 165   234    25225     2531     1.72     0.00     1553      153     0.08     0.00      562       36        0      597
   17 166   235    25439     2313     2.30     0.00     1579      155     0.08     0.00      570       37        0      607
   17 167   236    30334     1438     2.59     0.00     1609      157     0.08     0.00      575       38        0      614
   17 168   237    23570     2531     2.89     0.00     1633      159     0.08     0.00      585       39        0      624
   17 169   238    18363     2969     2.86     0.00     1651      162     0.09     0.00      596       41        0      636
   17 170   239    14109     3500     2.69     0.00     1665      166     0.09     0.00      608       42        0      650
   17 171   240    12686     3594     2.41     0.00     1678      169     0.09     0.00      622       43        0      665
   17 172   241    11543     3781     2.17     0.00     1690      173     0.09     0.00      635       44        0      680
   17 173   242     9886     4344     2.01     0.00     1699      178     0.10     0.00      651       45        0      697
   17 174   243    21130     2531     1.71     0.00     1721      180     0.10     0.00      661       46        0      707
   17 175   244    14909     4094     1.80     0.00     1735      184     0.10     0.00      676       47        0      723
   17 176   245    10115     4969     1.74     0.00     1746      189     0.10     0.00      694       48        0      742
   17 177   246     9827     4531     1.55     0.00     1755      194     0.10     0.00      711       48        0      759
   17 178   247    16981     2969     1.31     0.00     1772      197     0.10     0.00      721       49        0      770
   17 179   248    28703      281     1.21     0.00     1801      197     0.11     0.00      723       50        0      772
   17 180   249    49287    -3938     0.79     0.00     1850      193     0.11     0.00      708       50        0      758
   17 181   250    49677    -4281     1.12     0.00     1900      189     0.11     0.00      692       50        0      743
   17 182   251    41241    -2063     1.06     0.00     1941      187     0.11     0.00      685       51        0      736
   17 183   252    31996     -781     1.02     0.00     1973      186     0.11     0.00      682       51        0      733
   17 184   253    25481      125     0.98     0.00     1999      186     0.11     0.00      682       52        0      734
   17 185   254    20792      844     0.96     0.00     2020      187     0.11     0.00      685       52        0      738
   17 186   255    16209     1625     0.94     0.00     2036      188     0.11     0.00      691       53        0      744
   17 187   256    12052     2531     0.90     0.00     2048      191     0.11     0.00      701       53        0      754
   17 188   257     8698     3344     0.85     0.00     2057      194     0.11     0.00      713       54        0      767
   17 189   258     7377     3938     0.80     0.00     2064      198     0.12     0.00      727       54        0      781
   17 190   259     5725     4469     0.80     0.00     2070      203     0.12     0.00      744       54        0      798
   17 191   260    49461    -3906     0.20     0.00     2119      199     0.12     0.00      730       54        0      784
   17 192   261    51054    -3500     0.45     0.00     2170      195     0.12     0.00      717       55        0      771
   17 193   262    49452    -3219     0.62     0.00     2220      192     0.12     0.00      705       55        0      760
   17 194   263    46489    -2719     0.67     0.00     2266      189     0.12     0.00      695       55        0      750
   17 195   264    37350    -1250     0.80     0.00     2303      188     0.12     0.00      690       56        0      746
   17 196   265    35603    -1469     0.49     0.00     2339      187     0.12     0.00      685       56        0      741
   17 197   266    31183     -781     0.84     0.00     2370      186     0.12     0.00      682       56        0      738
   17 198   267    25734       94     0.84     0.00     2396      186     0.12     0.00      682       57        0      739
   17 199   268    21230      938     0.86     0.00     2417      187     0.12     0.00      686       57        0      743
   17 200   269    17582     1875     0.92     0.00     2435      189     0.12     0.00      693       57        0      750
   17 201   270    16388     2531     0.88     0.00     2451      191     0.12     0.00      702       58        0      760
   17 202   271    14954     2906     0.84     0.00     2466      194     0.12     0.00      713       58        0      771
   17 203   272    13792     3406     0.84     0.00     2480      198     0.13     0.00      725       59        0      784
   17 204   273    13065     3656     0.81     0.00     2493      201     0.13     0.00      739       59        0      798
   17 205   274    11538     3656     0.80     0.00     2504      205     0.13     0.00      752       59        0      811
   17 206   275    14556     2656     0.71     0.00     2519      208     0.13     0.00      762       60        0      821
   17 207   276    29721     -313     0.36     0.00     2549      207     0.13     0.00      761       60        0      820
   17 208   277    23959     1375     0.27     0.00     2573      209     0.13     0.00      766       60        0      826
   17 209   278    21925     1438     0.34     0.00     2595      210     0.13     0.00      771       60        0      831
   17 210   279    22363     1500     0.68     0.00     2617      212     0.13     0.00      776       60        0      837
   17 211   280    22534     1938     0.71     0.00     2640      214     0.13     0.00      784       61        0      844
   17 212   281    25328     2281     0.73     0.00     2665      216     0.13     0.00      792       61        0      853
   17 213   282    26356     3156     0.77     0.00     2691      219     0.13     0.00      804       62        0      865
   17 214   283    37950     2031     0.71     0.00     2729      221     0.13     0.00      811       62        0      873
   17 215   284    33945     3594     0.79     0.00     2763      225     0.13     0.00      824       62        0      886
   17 216   285    39500     3063     0.80     0.00     2803      228     0.13     0.00      835       63        0      898
   17 217   286    34579     4063     0.88     0.00     2837      232     0.13     0.00      850       63        0      913
   17 218   287    30901     4781     0.97     0.00     2868      236     0.14     0.00      868       63        0      931
   17 219   288    25980     4781     1.02     0.00     2894      241     0.14     0.00      885       64        0      949

*DSSAT Cropping System Model Ver. 4.8.5.000 -release  MAR 01, 2026 09:34:40

*RUN   3        : 3                         WHAPS048 TUDU1701    3
 MODEL          : WHAPS048 - Wheat
 EXPERIMENT     : TUDU1701 WH
 DATA PATH      :
 TREATMENT  3   : 3                         WHAPS048
  
!               |---------- Daily (g/ha) ----------|------- Cumulative (kg/ha) --------|---- Cum CO2-equiv kg[CO2eq]/ha ---|
!               Soil CO2  Net CO2      N2O      CH4 Soil CO2  Net CO2      N2O      CH4  Net CO2      N2O      CH4    Total
!                g[C]/ha  g[C]/ha  g[N]/ha  g[C]/ha kg[C]/ha kg[C]/ha kg[N]/ha kg[C]/ha    CO2eq    CO2eq    CO2eq    CO2eq
@YEAR DOY   DAS   CO2GED   CO2END   N2OGED   CH4GED    CO2EC   CO2ENC    N2OEC    CH4EC    CCEQC    NCEQC    MCEQC    TCEQC
   16 298     1    41008    -2563     0.01     0.00       41       -3     0.00     0.00       -9        0        0       -9
   16 299     2    42720    -2969     0.01     0.00       84       -6     0.00     0.00      -20        0        0      -20
   16 300     3    41054    -2781     0.01     0.00      125       -8     0.00     0.00      -31        0        0      -30
   16 301     4    36023    -2188     0.01     0.00      161      -11     0.00     0.00      -39        0        0      -39
   16 302     5    27792    -1125     0.01     0.00      189      -12     0.00     0.00      -43        0        0      -43
   16 303     6    20212     -375     0.01     0.00      209      -12     0.00     0.00      -44        0        0      -44
   16 304     7    14627      125     0.02     0.00      223      -12     0.00     0.00      -44        0        0      -44
   16 305     8     9541      625     0.02     0.00      233      -11     0.00     0.00      -41        0        0      -41
   16 306     9     6445      813     0.03     0.00      239      -10     0.00     0.00      -38        0        0      -38
   16 307    10     4063      969     0.03     0.00      243       -9     0.00     0.00      -35        0        0      -35
   16 308    11     3990      969     0.03     0.00      247       -9     0.00     0.00      -31        0        0      -31
   16 309    12     1890      938     0.04     0.00      249       -8     0.00     0.00      -28        0        0      -28
   16 310    13     1368      688     0.04     0.00      251       -7     0.00     0.00      -25        0        0      -25
   16 311    14     1671      813     0.03     0.00      252       -6     0.00     0.00      -22        0        0      -22
   16 312    15     1855      938     0.01     0.00      254       -5     0.00     0.00      -19        0        0      -19
   16 313    16     1138      563     0.03     0.00      255       -5     0.00     0.00      -17        0        0      -17
   16 314    17      977      531     0.04     0.00      256       -4     0.00     0.00      -15        0        0      -15
   16 315    18      971      563     0.03     0.00      257       -3     0.00     0.00      -13        0        0      -13
   16 316    19      736      438     0.02     0.00      258       -3     0.00     0.00      -11        0        0      -11
   16 317    20      629      344     0.02     0.00      259       -3     0.00     0.00      -10        0        0      -10
   16 318    21      617      344     0.04     0.00      259       -2     0.00     0.00       -9        0        0       -8
   16 319    22      503      281     0.05     0.00      260       -2     0.00     0.00       -8        0        0       -7
   16 320    23      339      250     0.06     0.00      260       -2     0.00     0.00       -7        0        0       -6
   16 321    24      228      125     0.03     0.00      260       -2     0.00     0.00       -6        0        0       -6
   16 322    25      375      219     0.02     0.00      261       -1     0.00     0.00       -5        0        0       -5
   16 323    26      778      438     0.05     0.00      262       -1     0.00     0.00       -4        0        0       -3
   16 324    27     1833      875     0.02     0.00      263        0     0.00     0.00       -1        0        0        0
   16 325    28     4259      938     0.02     0.00      268        1     0.00     0.00        3        0        0        3
   16 326    29     6151      844     0.06     0.00      274        2     0.00     0.00        6        0        0        6
   16 327    30     6564      906     0.08     0.00      280        3     0.00     0.00        9        0        0       10
   16 328    31     6780      813     0.08     0.00      287        3     0.00     0.00       12        0        0       13
   16 329    32     5120      875     0.08     0.00      292        4     0.00     0.00       15        0        0       16
   16 330    33     6812      875     0.09     0.00      299        5     0.00     0.00       19        1        0       19
   16 331    34     8428      719     0.09     0.00      307        6     0.00     0.00       21        1        0       22
   16 332    35     7034      781     0.10     0.00      315        7     0.00     0.00       24        1        0       25
   16 333    36     3231      969     0.10     0.00      318        8     0.00     0.00       28        1        0       28
   16 334    37     1106      594     0.11     0.00      319        8     0.00     0.00       30        1        0       31
   16 335    38      401      250     0.11     0.00      319        8     0.00     0.00       31        1        0       32
   16 336    39      105       63     0.12     0.00      319        8     0.00     0.00       31        1        0       32
   16 337    40       47       31     0.12     0.00      319        9     0.00     0.00       31        1        0       32
   16 338    41       36       63     0.12     0.00      319        9     0.00     0.00       31        1        0       32
   16 339    42       24        0     0.13     0.00      319        9     0.00     0.00       31        1        0       32
   16 340    43       17       31     0.13     0.00      319        9     0.00     0.00       32        1        0       33
   16 341    44       18        0     0.14     0.00      320        9     0.00     0.00       32        1        0       33
[...]
   17 061   130       31        0     0.04     0.00      336       16     0.02     0.00       59        8        0       67
   17 062   131       70       63     0.09     0.00      336       16     0.02     0.00       59        8        0       67
   17 063   132       51       31     0.08     0.00      336       16     0.02     0.00       60        8        0       67
   17 064   133      256      156     0.08     0.00      336       16     0.02     0.00       60        8        0       68
   17 065   134     1110      281     0.08     0.00      337       17     0.02     0.00       61        8        0       69
   17 066   135     1272      469     0.07     0.00      339       17     0.02     0.00       63        8        0       71
   17 067   136     1093      313     0.07     0.00      340       17     0.02     0.00       64        8        0       72
   17 068   137     1178      406     0.04     0.00      341       18     0.02     0.00       65        8        0       73
   17 069   138      896      344     0.03     0.00      342       18     0.02     0.00       67        8        0       75
   17 070   139      174       94     0.07     0.00      342       18     0.02     0.00       67        8        0       75
   17 071   140       52       31     0.07     0.00      342       18     0.02     0.00       67        8        0       75
   17 072   141       75       63     0.07     0.00      342       18     0.02     0.00       67        8        0       75
   17 073   142       76       31     0.07     0.00      342       18     0.02     0.00       68        8        0       76
   17 074   143        9       31     0.07     0.00      342       18     0.02     0.00       68        8        0       76
   17 075   144       45        0     0.07     0.00      342       18     0.02     0.00       68        8        0       76
   17 076   145      455      156     0.07     0.00      343       19     0.02     0.00       68        8        0       76
   17 077   146     1461      625     0.07     0.00      344       19     0.02     0.00       71        8        0       79
   17 078   147     2397     1063     0.06     0.00      347       20     0.02     0.00       74        8        0       83
   17 079   148     3917     1719     0.06     0.00      351       22     0.02     0.00       81        8        0       89
   17 080   149     5082     2063     0.06     0.00      356       24     0.02     0.00       88        8        0       96
   17 081   150     6073     2250     0.06     0.00      362       26     0.02     0.00       97        8        0      105
   17 082   151     5782     1938     0.06     0.00      368       28     0.02     0.00      104        8        0      112
   17 083   152     6020     1875     0.06     0.00      374       30     0.02     0.00      111        8        0      119
   17 084   153     5207     1375     0.06     0.00      379       32     0.02     0.00      116        8        0      124
   17 085   154     4641     1094     0.07     0.00      383       33     0.02     0.00      120        8        0      128
   17 086   155     3667      625     0.07     0.00      387       33     0.02     0.00      122        8        0      130
   17 087   156     3818      813     0.07     0.00      391       34     0.02     0.00      125        8        0      133
   17 088   157     3637      813     0.07     0.00      395       35     0.02     0.00      128        8        0      136
   17 089   158     4629     1469     0.07     0.00      399       36     0.02     0.00      133        8        0      142
   17 090   159     5268     1656     0.07     0.00      404       38     0.02     0.00      139        8        0      148
   17 091   160     6951     2531     0.07     0.00      411       41     0.02     0.00      149        9        0      157
   17 092   161     8100     3000     0.07     0.00      419       44     0.02     0.00      160        9        0      168
   17 093   162     9249     3500     0.07     0.00      429       47     0.02     0.00      172        9        0      181
   17 094   163     9690     3500     0.06     0.00      438       51     0.02     0.00      185        9        0      194
   17 095   164     9403     3000     0.07     0.00      448       54     0.02     0.00      196        9        0      205
   17 096   165     8498     2344     0.07     0.00      456       56     0.02     0.00      205        9        0      214
   17 097   166     6993     1531     0.08     0.00      463       57     0.02     0.00      211        9        0      219
   17 098   167     6055     1156     0.08     0.00      469       59     0.02     0.00      215        9        0      224
   17 099   168     5705     1125     0.08     0.00      475       60     0.02     0.00      219        9        0      228
   17 100   169     6358     1625     0.09     0.00      481       61     0.02     0.00      225        9        0      234
   17 101   170     7405     2344     0.09     0.00      489       64     0.02     0.00      234        9        0      242
   17 102   171     7789     2500     0.09     0.00      497       66     0.02     0.00      243        9        0      252
   17 103   172     7807     2438     0.10     0.00      504       69     0.02     0.00      252        9        0      261
   17 104   173     7488     2406     0.10     0.00      512       71     0.02     0.00      260        9        0      269
   17 105   174     6669     2031     0.11     0.00      519       73     0.02     0.00      268        9        0      277
   17 106   175     6473     1531     0.11     0.00      525       75     0.02     0.00      274        9        0      283
   17 107   176     6309     1563     0.11     0.00      531       76     0.02     0.00      279        9        0      288
   17 108   177     5653     1219     0.09     0.00      537       77     0.02     0.00      284        9        0      293
   17 109   178     4203      500     0.07     0.00      541       78     0.02     0.00      286        9        0      295
   17 110   179     2322     -188     0.13     0.00      544       78     0.02     0.00      285        9        0      294
   17 111   180        0        0     0.13     0.00      544       78     0.02     0.00      285        9        0      294
   17 112   181        0        0     0.14     0.00      544       78     0.02     0.00      285        9        0      294
   17 113   182        0        0     0.14     0.00      544       78     0.02     0.00      285        9        0      294
   17 114   183        0        0     0.15     0.00      544       78     0.02     0.00      285       10        0      294
   17 115   184        0        0     0.15     0.00      544       78     0.02     0.00      285       10        0      295
   17 116   185     1961       31     0.09     0.00      545       78     0.02     0.00      285       10        0      295
   17 117   186     1312        0     0.06     0.00      547       78     0.02     0.00      285       10        0      295
   17 118   187        0        0     0.06     0.00      547       78     0.02     0.00      285       10        0      295
   17 119   188        0        0     0.06     0.00      547       78     0.02     0.00      285       10        0      295
   17 120   189        0        0     0.16     0.00      547       78     0.02     0.00      285       10        0      295
   17 121   190        0        0     0.17     0.00      547       78     0.02     0.00      285       10        0      295
   17 122   191      782      219     0.07     0.00      548       78     0.02     0.00      286       10        0      296
   17 123   192     2229     1156     0.16     0.00      550       79     0.02     0.00      290       10        0      300
   17 124   193     4051     2063     0.16     0.00      554       81     0.02     0.00      298       10        0      308
   17 125   194     5036     2219     0.17     0.00      559       83     0.02     0.00      306       10        0      316
   17 126   195     6053     2563     0.18     0.00      565       86     0.02     0.00      315       10        0      325
   17 127   196     7323     3000     0.20     0.00      572       89     0.02     0.00      326       10        0      337
   17 128   197     8202     3219     0.13     0.00      580       92     0.02     0.00      338       10        0      348
   17 129   198     8273     3031     0.08     0.00      589       95     0.02     0.00      349       10        0      360
   17 130   199     8145     2594     0.22     0.00      597       98     0.02     0.00      359       11        0      369
   17 131   200     7645     2219     0.23     0.00      605      100     0.02     0.00      367       11        0      377
   17 132   201     7531     2156     0.25     0.00      612      102     0.02     0.00      375       11        0      385
   17 133   202     8457     2688     0.27     0.00      621      105     0.02     0.00      385       11        0      395
   17 134   203     9620     3375     0.29     0.00      630      108     0.02     0.00      397       11        0      408
   17 135   204    11347     4656     0.07     0.00      642      113     0.02     0.00      414       11        0      425
   17 136   205    12826     5063     0.16     0.00      654      118     0.02     0.00      433       11        0      444
   17 137   206    13803     5125     0.26     0.00      668      123     0.02     0.00      451       11        0      463
   17 138   207    14050     4781     0.28     0.00      682      128     0.02     0.00      469       11        0      480
   17 139   208    14740     4906     0.31     0.00      697      133     0.02     0.00      487       12        0      499
   17 140   209    15167     5031     0.33     0.00      712      138     0.02     0.00      505       12        0      517
   17 141   210    14901     4656     0.34     0.00      727      142     0.03     0.00      523       12        0      534
   17 142   211    14092     4438     0.36     0.00      741      147     0.03     0.00      539       12        0      551
   17 143   212    13762     4406     0.37     0.00      755      151     0.03     0.00      555       12        0      567
   17 144   213    13461     4188     0.38     0.00      768      155     0.03     0.00      570       12        0      583
   17 145   214    13104     4000     0.38     0.00      781      159     0.03     0.00      585       13        0      598
   17 146   215    13596     4188     0.39     0.00      795      164     0.03     0.00      600       13        0      613
   17 147   216    14134     4563     0.40     0.00      809      168     0.03     0.00      617       13        0      630
   17 148   217    14492     4750     0.40     0.00      824      173     0.03     0.00      635       13        0      648
   17 149   218    14953     4781     0.41     0.00      839      178     0.03     0.00      652       13        0      665
   17 150   219    16126     5594     0.41     0.00      855      183     0.03     0.00      673       13        0      686
   17 151   220    20018     6594     0.36     0.00      875      190     0.03     0.00      697       14        0      711
   17 152   221    21585     7125     0.38     0.00      896      197     0.03     0.00      723       14        0      737
   17 153   222    22731     7219     0.40     0.00      919      204     0.03     0.00      749       14        0      764
   17 154   223    23443     7031     0.42     0.00      942      211     0.03     0.00      775       14        0      790
   17 155   224    24599     7344     0.40     0.00      967      219     0.03     0.00      802       14        0      817
   17 156   225    23905     6156     0.41     0.00      991      225     0.03     0.00      825       15        0      839
   17 157   226    23715     5406     0.42     0.00     1015      230     0.03     0.00      845       15        0      859
   17 158   227    22941     4438     0.26     0.00     1038      235     0.03     0.00      861       15        0      876
   17 159   228    21368     3281     0.47     0.00     1059      238     0.03     0.00      873       15        0      888
   17 160   229    19517     2375     0.48     0.00     1079      240     0.03     0.00      882       15        0      897
   17 161   230    19595     2844     0.47     0.00     1098      243     0.03     0.00      892       16        0      908
   17 162   231    19204     2906     0.49     0.00     1117      246     0.03     0.00      903       16        0      919
   17 163   232    19967     3313     0.52     0.00     1137      249     0.03     0.00      915       16        0      931
   17 164   233    20284     4656     0.53     0.00     1158      254     0.03     0.00      932       16        0      948
   17 165   234    21650     4906     0.52     0.00     1179      259     0.04     0.00      950       17        0      967
   17 166   235    22823     4750     0.52     0.00     1202      264     0.04     0.00      968       17        0      984
   17 167   236    26911     4500     0.45     0.00     1229      268     0.04     0.00      984       17        0     1001
   17 168   237    28565     3656     0.50     0.00     1258      272     0.04     0.00      997       17        0     1015
   17 169   238    26062     3438     0.52     0.00     1284      275     0.04     0.00     1010       17        0     1028
   17 170   239    23905     3563     0.52     0.00     1307      279     0.04     0.00     1023       18        0     1041
   17 171   240    23032     3781     0.52     0.00     1331      283     0.04     0.00     1037       18        0     1055
   17 172   241    22727     3969     0.52     0.00     1353      287     0.04     0.00     1052       18        0     1070
   17 173   242    22037     4688     0.53     0.00     1375      291     0.04     0.00     1069       18        0     1087
   17 174   243    27191     4844     0.46     0.00     1402      296     0.04     0.00     1087       19        0     1105
   17 175   244    28237     5125     0.52     0.00     1431      301     0.04     0.00     1105       19        0     1124
   17 176   245    24806     5781     0.55     0.00     1456      307     0.04     0.00     1127       19        0     1146
   17 177   246    23637     5344     0.55     0.00     1479      312     0.04     0.00     1146       19        0     1166
   17 178   247    25067     5219     0.50     0.00     1504      318     0.04     0.00     1165       20        0     1185
   17 179   248    29130     4375     0.50     0.00     1533      322     0.04     0.00     1181       20        0     1201
   17 180   249    47222      219     0.41     0.00     1581      322     0.04     0.00     1182       20        0     1202
   17 181   250    46201      250     0.54     0.00     1627      322     0.04     0.00     1183       20        0     1203
   17 182   251    43668      656     0.57     0.00     1670      323     0.04     0.00     1186       21        0     1206
   17 183   252    38689      906     0.61     0.00     1709      324     0.04     0.00     1189       21        0     1210
   17 184   253    32091     1688     0.64     0.00     1741      326     0.05     0.00     1195       21        0     1216
   17 185   254    27451     2344     0.65     0.00     1769      328     0.05     0.00     1204       22        0     1225
   17 186   255    25925     2625     0.65     0.00     1795      331     0.05     0.00     1213       22        0     1235
   17 187   256    25362     3031     0.65     0.00     1820      334     0.05     0.00     1224       22        0     1247
   17 188   257    25992     3406     0.65     0.00     1846      337     0.05     0.00     1237       22        0     1259
   17 189   258    27843     3688     0.65     0.00     1874      341     0.05     0.00     1250       23        0     1273
   17 190   259    26566     4500     0.68     0.00     1900      345     0.05     0.00     1267       23        0     1290
   17 191   260    42690     2469     0.17     0.00     1943      348     0.05     0.00     1276       23        0     1299
   17 192   261    41426     3281     0.43     0.00     1984      351     0.05     0.00     1288       23        0     1311
   17 193   262    41519     3094     0.60     0.00     2026      354     0.05     0.00     1299       24        0     1323
   17 194   263    40946     2750     0.60     0.00     2067      357     0.05     0.00     1310       24        0     1333
   17 195   264    38556     1969     0.66     0.00     2106      359     0.05     0.00     1317       24        0     1341
   17 196   265    35598     2063     0.61     0.00     2141      361     0.05     0.00     1324       24        0     1349
   17 197   266    33465     1656     0.70     0.00     2175      363     0.05     0.00     1330       25        0     1355
   17 198   267    30601     1750     0.76     0.00     2205      364     0.05     0.00     1337       25        0     1362
   17 199   268    26376     2500     0.82     0.00     2232      367     0.05     0.00     1346       26        0     1372
   17 200   269    26022     3281     0.86     0.00     2258      370     0.06     0.00     1358       26        0     1384
   17 201   270    26892     4156     0.88     0.00     2284      374     0.06     0.00     1373       26        0     1400
   17 202   271    28190     4656     0.87     0.00     2313      379     0.06     0.00     1390       27        0     1417
   17 203   272    27982     5344     0.89     0.00     2341      384     0.06     0.00     1410       27        0     1437
   17 204   273    29290     5625     0.88     0.00     2370      390     0.06     0.00     1431       28        0     1458
   17 205   274    27946     5656     0.89     0.00     2398      395     0.06     0.00     1451       28        0     1479
   17 206   275    32587     3656     0.80     0.00     2430      399     0.06     0.00     1465       28        0     1493
   17 207   276    33431     2750     0.43     0.00     2464      402     0.06     0.00     1475       29        0     1503
   17 208   277    28378     3094     0.31     0.00     2492      405     0.06     0.00     1486       29        0     1515
   17 209   278    28263     2188     0.42     0.00     2521      407     0.06     0.00     1494       29        0     1523
   17 210   279    26056     2750     0.76     0.00     2547      410     0.06     0.00     1504       29        0     1534
   17 211   280    24389     3813     0.84     0.00     2571      414     0.06     0.00     1518       30        0     1548
   17 212   281    30056     3969     0.84     0.00     2601      418     0.06     0.00     1533       30        0     1563
   17 213   282    31390     5313     0.90     0.00     2632      423     0.07     0.00     1552       30        0     1583
   17 214   283    48608     3063     0.86     0.00     2681      426     0.07     0.00     1564       31        0     1595
   17 215   284    40833     5844     0.95     0.00     2722      432     0.07     0.00     1585       31        0     1616
   17 216   285    49625     4688     0.95     0.00     2771      437     0.07     0.00     1602       32        0     1634
   17 217   286    42076     6344     1.04     0.00     2814      443     0.07     0.00     1626       32        0     1658
   17 218   287    37008     7438     1.13     0.00     2851      450     0.07     0.00     1653       33        0     1686
   17 219   288    30879     7375     1.18     0.00     2881      458     0.07     0.00     1680       33        0     1713
