*N2O emissions output file

*DSSAT Cropping System Model Ver. 4.8.5.000 -release  MAR 01, 2026 09:34:40

*RUN   1        : 1                         WHAPS048 TUDU1701    1
 MODEL          : WHAPS048 - Wheat
 EXPERIMENT     : TUDU1701 WH
 DATA PATH      :
 TREATMENT  1   : 1                         WHAPS048
  
!              |------------------------------ Cumulative -----------------------------|------------------------------ Daily ----------------------------------|
!               N2Oemit  N2emit  NOemit   Denit  Nitrif   N2O-denit+nit      N2      NO N2Oemit  N2emit  NOemit   Denit  Nitrif   N2O-denit+nit      N2      NO   Denitrification (g[N]/ha) by soil depth (cm):                                   Nitrification (g[N]/ha) by soil depth (cm):                                     N2O flux (g[N]/ha) by soil depth (cm):                                          N2 flux (g[N]/ha) by soil depth (cm):                                           NO flux (g[N]/ha) by soil depth (cm):
!                 kg/ha   kg/ha   kg/ha   kg/ha   kg/ha   kg/ha   kg/ha   kg/ha   kg/ha    g/ha    g/ha    g/ha    g/ha    g/ha    g/ha    g/ha    g/ha    g/ha     0-5    5-15   15-20   20-30   30-40   40-50   50-60   60-70   70-90  90-210     0-5    5-15   15-20   20-30   30-40   40-50   50-60   60-70   70-90  90-210     0-5    5-15   15-20   20-30   30-40   40-50   50-60   60-70   70-90  90-210     0-5    5-15   15-20   20-30   30-40   40-50   50-60   60-70   70-90  90-210     0-5    5-15   15-20   20-30   30-40   40-50   50-60   60-70   70-90  90-210
@YEAR DOY   DAS   N2OEC    N2EC    NOEC    NDNC    NITC   N2ODC   N2ONC   N2FLC   NOFLC  N2OGED   N2GED   NOGED    NDND   NITRD   N2ODD   N2OND   N2FLD   NOFLD   NDN1D   NDN2D   NDN3D   NDN4D   NDN5D   NDN6D   NDN7D   NDN8D   NDN9D   NDN10   NIT1D   NIT2D   NIT3D   NIT4D   NIT5D   NIT6D   NIT7D   NIT8D   NIT9D   NIT10   N2O1D   N2O2D   N2O3D   N2O4D   N2O5D   N2O6D   N2O7D   N2O8D   N2O9D   N2O10   N2F1D   N2F2D   N2F3D   N2F4D   N2F5D   N2F6D   N2F7D   N2F8D   N2F9D   N2F10   NOF1D   NOF2D   NOF3D   NOF4D   NOF5D   NOF6D   NOF7D   NOF8D   NOF9D   NOF10
   16 298     1    0.00    0.00    0.00    0.00     1.7   0.000   0.002   0.000   0.008     0.0     0.0     0.1     0.0    1651    0.00    1.65    0.00    8.14     0.0     0.0     0.0     0.0     0.0     0.0     0.0     0.0     0.0     0.0     28.     60.     31.     64.     67.     69.     71.     73.    156.    163.     0.0     0.1     0.0     0.1     0.1     0.1     0.1     0.1     0.2     0.2     0.0     0.0     0.0     0.0     0.0     0.0     0.0     0.0     0.0     0.0     0.4     0.7     0.3     0.5     0.5     0.4     0.4     0.4     0.6     0.6
   16 299     2    0.00    0.00    0.00    0.00     3.0   0.000   0.003   0.000   0.013     0.0     0.0     0.1     0.0    1347    0.00    1.35    0.00    4.89     0.0     0.0     0.0     0.0     0.0     0.0     0.0     0.0     0.0     0.0      0.      0.     27.     57.     59.     60.     62.     64.    134.    140.     0.0     0.0     0.0     0.1     0.1     0.1     0.1     0.1     0.1     0.1     0.0     0.0     0.0     0.0     0.0     0.0     0.0     0.0     0.0     0.0     0.0     0.0     0.2     0.4     0.3     0.3     0.3     0.3     0.5     0.4
   16 300     3    0.00    0.00    0.00    0.00     4.1   0.000   0.004   0.000   0.016     0.0     0.0     0.1     0.0    1151    0.00    1.15    0.00    3.40     0.0     0.0     0.0     0.0     0.0     0.0     0.0     0.0     0.0     0.0      0.      0.     24.     49.     51.     52.     54.     55.    115.    119.     0.0     0.0     0.0     0.0     0.1     0.1     0.1     0.1     0.1     0.1     0.0     0.0     0.0     0.0     0.0     0.0     0.0     0.0     0.0     0.0     0.0     0.0     0.2     0.3     0.2     0.2     0.2     0.2     0.3     0.3
   16 301     4    0.00    0.00    0.00    0.00     5.1   0.000   0.005   0.000   0.019     0.0     0.0     0.1     0.0     963    0.00    0.96    0.00    2.32     0.0     0.0     0.0     0.0     0.0     0.0     0.0     0.0     0.0     0.0      0.      0.     20.     42.     43.     44.     45.     46.     96.     99.     0.0     0.0     0.0     0.0     0.0     0.0     0.0     0.0     0.1     0.1     0.0     0.0     0.0     0.0     0.0     0.0     0.0     0.0     0.0     0.0     0.0     0.0     0.1     0.2     0.2     0.1     0.1     0.1     0.2     0.2
   16 302     5    0.00    0.00    0.00    0.00     5.9   0.000   0.006   0.000   0.020     0.0     0.0     0.1     0.0     795    0.00    0.80    0.00    1.55     0.0     0.0     0.0     0.0     0.0     0.0     0.0     0.0     0.0     0.0      0.      0.     17.     34.     36.     36.     37.     38.     78.     82.     0.0     0.0     0.0     0.0     0.0     0.0     0.0     0.0     0.1     0.1     0.0     0.0     0.0     0.0     0.0     0.0     0.0     0.0     0.0     0.0     0.0     0.0     0.1     0.1     0.1     0.1     0.1     0.1     0.1     0.1
   16 303     6    0.00    0.00    0.00    0.00     6.6   0.000   0.007   0.000   0.021     0.0     0.0     0.1     0.0     663    0.00    0.66    0.00    1.05     0.0     0.0     0.0     0.0     0.0     0.0     0.0     0.0     0.0     0.0      0.      0.     14.     29.     30.     30.     31.     32.     65.     68.     0.0     0.0     0.0     0.0     0.0     0.0     0.0     0.0     0.1     0.1     0.0     0.0     0.0     0.0     0.0     0.0     0.0     0.0     0.0     0.0     0.0     0.0     0.1     0.1     0.1     0.1     0.1     0.1     0.1     0.1
   16 304     7    0.00    0.00    0.00    0.00     7.1   0.000   0.007   0.000   0.022     0.0     0.0     0.1     0.3     564    0.02    0.56    0.25    0.73     0.0     0.3     0.0     0.0     0.0     0.0     0.0     0.0     0.0     0.0      0.      0.     12.     24.     25.     25.     26.     27.     55.     58.     0.0     0.0     0.0     0.0     0.0     0.0     0.0     0.0     0.1     0.1     0.0     0.2     0.0     0.0     0.0     0.0     0.0     0.0     0.0     0.0     0.0     0.0     0.0     0.1     0.1     0.0     0.0     0.0     0.1     0.1
   16 305     8    0.00    0.00    0.00    0.00     7.6   0.000   0.008   0.000   0.023     0.0     0.0     0.2     0.1     484    0.01    0.48    0.14    0.58     0.0     0.1     0.0     0.0     0.0     0.0     0.0     0.0     0.0     0.0      0.      0.     10.     21.     22.     22.     23.     23.     47.     49.     0.0     0.0     0.0     0.0     0.0     0.0     0.0     0.0     0.0     0.0     0.0     0.1     0.0     0.0     0.0     0.0     0.0     0.0     0.0     0.0     0.0     0.0     0.0     0.0     0.0     0.0     0.0     0.0     0.1     0.1
   16 306     9    0.00    0.00    0.00    0.00     8.0   0.000   0.008   0.000   0.023     0.0     0.0     0.2     0.0     426    0.00    0.43    0.03    0.51     0.0     0.0     0.0     0.0     0.0     0.0     0.0     0.0     0.0     0.0      0.      0.      9.     18.     19.     19.     20.     21.     41.     43.     0.0     0.0     0.0     0.0     0.0     0.0     0.0     0.0     0.0     0.0     0.0     0.0     0.0     0.0     0.0     0.0     0.0     0.0     0.0     0.0     0.0     0.0     0.0     0.0     0.0     0.0     0.0     0.0     0.0     0.0
   16 307    10    0.00    0.00    0.00    0.00     8.4   0.000   0.008   0.000   0.024     0.0     0.0     0.2     0.0     378    0.00    0.38    0.00    0.45     0.0     0.0     0.0     0.0     0.0     0.0     0.0     0.0     0.0     0.0      0.      0.      8.     16.     17.     17.     18.     18.     36.     38.     0.0     0.0     0.0     0.0     0.0     0.0     0.0     0.0     0.0     0.0     0.0     0.0     0.0     0.0     0.0     0.0     0.0     0.0     0.0     0.0     0.0     0.0     0.0     0.0     0.0     0.0     0.0     0.0     0.0     0.0
   16 308    11    0.00    0.00    0.00    0.00     8.8   0.000   0.009   0.000   0.024     0.0     0.0     0.2     0.0     347    0.00    0.35    0.00    0.42     0.0     0.0     0.0     0.0     0.0     0.0     0.0     0.0     0.0     0.0      0.      0.      8.     15.     16.     16.     16.     17.     33.     35.     0.0     0.0     0.0     0.0     0.0     0.0     0.0     0.0     0.0     0.0     0.0     0.0     0.0     0.0     0.0     0.0     0.0     0.0     0.0     0.0     0.0     0.0     0.0     0.0     0.0     0.0     0.0     0.0     0.0     0.0
   16 309    12    0.00    0.00    0.00    0.00     9.1   0.000   0.009   0.000   0.024     0.0     0.0     0.2     0.0     305    0.00    0.31    0.00    0.37     0.0     0.0     0.0     0.0     0.0     0.0     0.0     0.0     0.0     0.0      0.      0.      7.     13.     14.     14.     14.     15.     29.     31.     0.0     0.0     0.0     0.0     0.0     0.0     0.0     0.0     0.0     0.0     0.0     0.0     0.0     0.0     0.0     0.0     0.0     0.0     0.0     0.0     0.0     0.0     0.0     0.0     0.0     0.0     0.0     0.0     0.0     0.0
   16 310    13    0.00    0.00    0.00    0.00     9.3   0.000   0.009   0.000   0.025     0.0     0.0     0.2     0.0     271    0.00    0.27    0.00    0.32     0.0     0.0     0.0     0.0     0.0     0.0     0.0     0.0     0.0     0.0      0.      0.      6.     11.     12.     12.     12.     13.     26.     27.     0.0     0.0     0.0     0.0     0.0     0.0     0.0     0.0     0.0     0.0     0.0     0.0     0.0     0.0     0.0     0.0     0.0     0.0     0.0     0.0     0.0     0.0     0.0     0.0     0.0     0.0     0.0     0.0     0.0     0.0
   16 311    14    0.00    0.00    0.00    0.00     9.6   0.000   0.010   0.000   0.025     0.0     0.0     0.1     0.0     256    0.00    0.26    0.00    0.30     0.0     0.0     0.0     0.0     0.0     0.0     0.0     0.0     0.0     0.0      0.      0.      5.     11.     11.     11.     12.     12.     24.     26.     0.0     0.0     0.0     0.0     0.0     0.0     0.0     0.0     0.0     0.0     0.0     0.0     0.0     0.0     0.0     0.0     0.0     0.0     0.0     0.0     0.0     0.0     0.0     0.0     0.0     0.0     0.0     0.0     0.0     0.0
   16 312    15    0.00    0.00    0.00    0.00     9.8   0.000   0.010   0.000   0.025     0.0     0.0     0.1     0.0     238    0.00    0.24    0.00    0.27     0.0     0.0     0.0     0.0     0.0     0.0     0.0     0.0     0.0     0.0      0.      0.      4.      9.     11.     11.     11.     12.     23.     24.     0.0     0.0     0.0     0.0     0.0     0.0     0.0     0.0     0.0     0.0     0.0     0.0     0.0     0.0     0.0     0.0     0.0     0.0     0.0     0.0     0.0     0.0     0.0     0.0     0.0     0.0     0.0     0.0     0.0     0.0
   16 313    16    0.00    0.00    0.00    0.00    10.0   0.000   0.010   0.000   0.026     0.0     0.0     0.1     0.0     208    0.00    0.21    0.00    0.23     0.0     0.0     0.0     0.0     0.0     0.0     0.0     0.0     0.0     0.0      0.      0.      3.      7.      8.      9.     10.     10.     20.     21.     0.0     0.0     0.0     0.0     0.0     0.0     0.0     0.0     0.0     0.0     0.0     0.0     0.0     0.0     0.0     0.0     0.0     0.0     0.0     0.0     0.0     0.0     0.0     0.0     0.0     0.0     0.0     0.0     0.0     0.0
   16 314    17    0.00    0.00    0.00    0.00    10.2   0.000   0.010   0.000   0.026     0.0     0.0     0.2     0.0     189    0.00    0.19    0.00    0.21     0.0     0.0     0.0     0.0     0.0     0.0     0.0     0.0     0.0     0.0      0.      0.      3.      7.      7.      8.      9.      9.     18.     19.     0.0     0.0     0.0     0.0     0.0     0.0     0.0     0.0     0.0     0.0     0.0     0.0     0.0     0.0     0.0     0.0     0.0     0.0     0.0     0.0     0.0     0.0     0.0     0.0     0.0     0.0     0.0     0.0     0.0     0.0
   16 315    18    0.00    0.00    0.00    0.00    10.4   0.000   0.010   0.000   0.026     0.0     0.0     0.2     0.0     174    0.00    0.17    0.00    0.19     0.0     0.0     0.0     0.0     0.0     0.0     0.0     0.0     0.0     0.0      0.      0.      3.      6.      6.      6.      8.      8.     16.     18.     0.0     0.0     0.0     0.0     0.0     0.0     0.0     0.0     0.0     0.0     0.0     0.0     0.0     0.0     0.0     0.0     0.0     0.0     0.0     0.0     0.0     0.0     0.0     0.0     0.0     0.0     0.0     0.0     0.0     0.0
   16 316    19    0.00    0.00    0.00    0.00    10.6   0.000   0.011   0.000   0.026     0.0     0.0     0.1     0.0     156    0.00    0.16    0.00    0.16     0.0     0.0     0.0     0.0     0.0     0.0     0.0     0.0     0.0     0.0      0.      0.      2.      5.      6.      5.      6.      7.     15.     16.     0.0     0.0     0.0     0.0     0.0     0.0     0.0     0.0     0.0     0.0     0.0     0.0     0.0     0.0     0.0     0.0     0.0     0.0     0.0     0.0     0.0     0.0     0.0     0.0     0.0     0.0     0.0     0.0     0.0     0.0
   16 317    20    0.00    0.00    0.00    0.00    10.7   0.000   0.011   0.000   0.026     0.0     0.0     0.1     0.0     142    0.00    0.14    0.00    0.14     0.0     0.0     0.0     0.0     0.0     0.0     0.0     0.0     0.0     0.0      0.      0.      2.      5.      5.      5.      5.      7.     13.     14.     0.0     0.0     0.0     0.0     0.0     0.0     0.0     0.0     0.0     0.0     0.0     0.0     0.0     0.0     0.0     0.0     0.0     0.0     0.0     0.0     0.0     0.0     0.0     0.0     0.0     0.0     0.0     0.0     0.0     0.0
   16 318    21    0.00    0.00    0.00    0.00    10.8   0.000   0.011   0.000   0.026     0.0     0.0     0.2     0.0     128    0.00    0.13    0.00    0.14     0.0     0.0     0.0     0.0     0.0     0.0     0.0     0.0     0.0     0.0      0.      0.      2.      5.      5.      5.      5.      6.     10.     11.     0.0     0.0     0.0     0.0     0.0     0.0     0.0     0.0     0.0     0.0     0.0     0.0     0.0     0.0     0.0     0.0     0.0     0.0     0.0     0.0     0.0     0.0     0.0     0.0     0.0     0.0     0.0     0.0     0.0     0.0
   16 319    22    0.00    0.00    0.00    0.00    11.0   0.000   0.011   0.000   0.026     0.1     0.0     0.2     0.0     117    0.00    0.12    0.00    0.13     0.0     0.0     0.0     0.0     0.0     0.0     0.0     0.0     0.0     0.0      0.      0.      3.      5.      5.      5.      5.      5.      9.     10.     0.0     0.0     0.0     0.0     0.0     0.0     0.0     0.0     0.0     0.0     0.0     0.0     0.0     0.0     0.0     0.0     0.0     0.0     0.0     0.0     0.0     0.0     0.0     0.0     0.0     0.0     0.0     0.0     0.0     0.0
   16 320    23    0.00    0.00    0.00    0.00    11.1   0.000   0.011   0.000   0.027     0.1     0.0     0.3     0.0     105    0.00    0.10    0.00    0.12     0.0     0.0     0.0     0.0     0.0     0.0     0.0     0.0     0.0     0.0      0.      0.      2.      4.      4.      4.      4.      4.      8.      9.     0.0     0.0     0.0     0.0     0.0     0.0     0.0     0.0     0.0     0.0     0.0     0.0     0.0     0.0     0.0     0.0     0.0     0.0     0.0     0.0     0.0     0.0     0.0     0.0     0.0     0.0     0.0     0.0     0.0     0.0
   16 321    24    0.00    0.00    0.00    0.00    11.2   0.000   0.011   0.000   0.027     0.0     0.0     0.1     0.0      94    0.00    0.09    0.00    0.10     0.0     0.0     0.0     0.0     0.0     0.0     0.0     0.0     0.0     0.0      0.      0.      2.      4.      4.      4.      4.      4.      7.      8.     0.0     0.0     0.0     0.0     0.0     0.0     0.0     0.0     0.0     0.0     0.0     0.0     0.0     0.0     0.0     0.0     0.0     0.0     0.0     0.0     0.0     0.0     0.0     0.0     0.0     0.0     0.0     0.0     0.0     0.0
   16 322    25    0.00    0.00    0.00    0.00    11.2   0.000   0.011   0.000   0.027     0.0     0.0     0.1     0.0      91    0.00    0.09    0.00    0.09     0.0     0.0     0.0     0.0     0.0     0.0     0.0     0.0     0.0     0.0      0.      0.      2.      4.      4.      4.      4.      4.      7.      8.     0.0     0.0     0.0     0.0     0.0     0.0     0.0     0.0     0.0     0.0     0.0     0.0     0.0     0.0     0.0     0.0     0.0     0.0     0.0     0.0     0.0     0.0     0.0     0.0     0.0     0.0     0.0     0.0     0.0     0.0
   16 323    26    0.00    0.00    0.00    0.00    11.3   0.000   0.011   0.000   0.027     0.0     0.0     0.2     0.0      92    0.00    0.09    0.01    0.09     0.0     0.0     0.0     0.0     0.0     0.0     0.0     0.0     0.0     0.0      0.      0.      2.      4.      4.      4.      4.      4.      7.      8.     0.0     0.0     0.0     0.0     0.0     0.0     0.0     0.0     0.0     0.0     0.0     0.0     0.0     0.0     0.0     0.0     0.0     0.0     0.0     0.0     0.0     0.0     0.0     0.0     0.0     0.0     0.0     0.0     0.0     0.0
   16 324    27    0.00    0.00    0.00    0.00    11.4   0.000   0.011   0.000   0.027     0.0     0.0     0.1     0.0      95    0.00    0.10    0.01    0.09     0.0     0.0     0.0     0.0     0.0     0.0     0.0     0.0     0.0     0.0      0.      0.      2.      4.      4.      4.      4.      4.      7.      8.     0.0     0.0     0.0     0.0     0.0     0.0     0.0     0.0     0.0     0.0     0.0     0.0     0.0     0.0     0.0     0.0     0.0     0.0     0.0     0.0     0.0     0.0     0.0     0.0     0.0     0.0     0.0     0.0     0.0     0.0
   16 325    28    0.00    0.00    0.00    0.00    11.5   0.000   0.012   0.001   0.027     0.0     0.0     0.1     0.5      96    0.06    0.10    0.49    0.14     0.0     0.0     0.0     0.0     0.0     0.0     0.0     0.0     0.0     0.0      0.      0.      2.      3.      4.      4.      4.      4.      8.      8.     0.0     0.0     0.0     0.0     0.0     0.0     0.0     0.0     0.0     0.0     0.0     0.0     0.0     0.0     0.0     0.0     0.0     0.0     0.0     0.0     0.0     0.0     0.0     0.0     0.0     0.0     0.0     0.0     0.0     0.0
   16 326    29    0.00    0.00    0.00    0.00    11.6   0.000   0.012   0.002   0.027     0.1     0.0     0.2     1.1     101    0.12    0.10    0.99    0.22     0.0     0.0     0.0     0.0     0.0     0.0     0.0     0.0     0.0     0.0      0.      0.      2.      4.      4.      4.      4.      4.      8.      9.     0.0     0.0     0.0     0.0     0.0     0.0     0.0     0.0     0.0     0.0     0.0     0.0     0.0     0.0     0.0     0.0     0.0     0.0     0.0     0.0     0.0     0.0     0.0     0.0     0.0     0.0     0.0     0.0     0.0     0.0
   16 327    30    0.00    0.00    0.00    0.00    11.7   0.001   0.012   0.004   0.028     0.1     0.0     0.3     2.7     103    0.29    0.10    2.41    0.39     0.0     0.0     0.0     0.0     0.0     0.0     0.0     0.0     0.9     0.7      0.      0.      3.      4.      4.      4.      4.      4.      8.      9.     0.0     0.0     0.0     0.0     0.0     0.0     0.0     0.0     0.1     0.1     0.0     0.0     0.0     0.0     0.0     0.0     0.0     0.0     0.8     0.6     0.0     0.0     0.0     0.0     0.0     0.0     0.0     0.0     0.1     0.1
   16 328    31    0.00    0.00    0.00    0.01    11.8   0.001   0.012   0.009   0.029     0.1     0.0     0.3     5.7     106    0.57    0.11    5.08    0.82     0.0     0.0     0.0     0.8     0.8     0.6     0.5     0.3     0.9     0.7      0.      0.      3.      4.      5.      4.      4.      4.      8.     10.     0.0     0.0     0.0     0.1     0.1     0.1     0.1     0.0     0.1     0.1     0.0     0.0     0.0     0.7     0.7     0.6     0.4     0.3     0.8     0.6     0.0     0.0     0.0     0.1     0.1     0.1     0.1     0.1     0.1     0.1
   16 329    32    0.00    0.00    0.01    0.02    11.9   0.002   0.012   0.014   0.029     0.1     0.0     0.3     5.4     105    0.54    0.10    4.91    0.76     0.0     0.1     0.2     0.4     0.4     0.6     0.5     0.3     0.9     0.7      0.      0.      3.      4.      4.      4.      4.      4.      8.      9.     0.0     0.0     0.0     0.0     0.0     0.1     0.1     0.0     0.1     0.1     0.0     0.1     0.2     0.3     0.3     0.5     0.4     0.3     0.8     0.6     0.0     0.0     0.0     0.1     0.1     0.1     0.1     0.0     0.1     0.1
   16 330    33    0.00    0.00    0.01    0.02    12.1   0.002   0.012   0.019   0.030     0.1     0.0     0.3     5.4     108    0.55    0.11    4.86    0.77     0.0     0.0     0.1     0.4     0.4     0.6     0.5     0.3     0.9     0.7      0.      0.      3.      4.      4.      4.      4.      4.      9.     10.     0.0     0.0     0.0     0.0     0.0     0.1     0.1     0.0     0.1     0.1     0.0     0.0     0.1     0.4     0.3     0.6     0.4     0.3     0.8     0.6     0.0     0.0     0.0     0.1     0.1     0.1     0.1     0.1     0.1     0.1
   16 331    34    0.00    0.00    0.01    0.03    12.2   0.003   0.012   0.024   0.031     0.1     0.0     0.3     5.5     112    0.56    0.11    4.93    0.79     0.0     0.0     0.1     0.4     0.4     0.6     0.5     0.3     0.9     0.7      0.      0.      3.      4.      5.      4.      4.      5.      9.     10.     0.0     0.0     0.0     0.0     0.0     0.1     0.1     0.0     0.1     0.1     0.0     0.0     0.1     0.4     0.3     0.6     0.4     0.3     0.8     0.6     0.0     0.0     0.0     0.1     0.1     0.1     0.1     0.1     0.1     0.1
   16 332    35    0.00    0.00    0.01    0.03    12.3   0.003   0.012   0.029   0.032     0.1     0.0     0.3     5.4     112    0.55    0.11    4.86    0.78     0.0     0.0     0.1     0.4     0.4     0.6     0.5     0.3     0.9     0.7      0.      0.      2.      4.      4.      4.      4.      5.      9.     10.     0.0     0.0     0.0     0.0     0.0     0.1     0.1     0.0     0.1     0.1     0.0     0.0     0.1     0.4     0.3     0.6     0.4     0.3     0.8     0.6     0.0     0.0     0.0     0.1     0.1     0.1     0.1     0.1     0.1     0.1
   16 333    36    0.00    0.00    0.01    0.04    12.4   0.004   0.012   0.034   0.032     0.1     0.1     0.3     5.2     107    0.53    0.11    4.70    0.75     0.0     0.0     0.1     0.4     0.4     0.6     0.4     0.3     0.9     0.6      0.      0.      2.      4.      4.      4.      4.      4.      8.     10.     0.0     0.0     0.0     0.0     0.0     0.1     0.1     0.0     0.1     0.1     0.0     0.0     0.1     0.3     0.3     0.5     0.4     0.3     0.8     0.6     0.0     0.0     0.0     0.1     0.1     0.1     0.1     0.0     0.1     0.1
   16 334    37    0.00    0.00    0.01    0.04    12.5   0.004   0.012   0.037   0.033     0.1     0.1     0.3     3.6      98    0.39    0.10    3.22    0.51     0.0     0.0     0.0     0.0     0.0     0.0     0.4     0.3     0.8     0.6      0.      0.      2.      3.      4.      3.      4.      4.      8.      9.     0.0     0.0     0.0     0.0     0.0     0.0     0.0     0.0     0.1     0.1     0.0     0.0     0.0     0.0     0.0     0.0     0.4     0.3     0.8     0.6     0.0     0.0     0.0     0.0     0.0     0.0     0.1     0.0     0.1     0.1
   16 335    38    0.00    0.00    0.01    0.04    12.6   0.004   0.013   0.038   0.033     0.1     0.1     0.3     1.3      85    0.15    0.09    1.19    0.23     0.0     0.0     0.0     0.0     0.0     0.0     0.0     0.0     0.0     0.0      0.      0.      2.      3.      3.      3.      3.      3.      6.      8.     0.0     0.0     0.0     0.0     0.0     0.0     0.0     0.0     0.0     0.0     0.0     0.0     0.0     0.0     0.0     0.0     0.0     0.0     0.0     0.0     0.0     0.0     0.0     0.0     0.0     0.0     0.0     0.0     0.0     0.0
   16 336    39    0.00    0.00    0.01    0.04    12.6   0.004   0.013   0.038   0.033     0.1     0.1     0.3     0.3      73    0.04    0.07    0.30    0.11     0.0     0.0     0.0     0.0     0.0     0.0     0.0     0.0     0.0     0.0      0.      0.      1.      2.      2.      2.      2.      3.      5.      6.     0.0     0.0     0.0     0.0     0.0     0.0     0.0     0.0     0.0     0.0     0.0     0.0     0.0     0.0     0.0     0.0     0.0     0.0     0.0     0.0     0.0     0.0     0.0     0.0     0.0     0.0     0.0     0.0     0.0     0.0
   16 337    40    0.00    0.00    0.01    0.04    12.7   0.004   0.013   0.038   0.033     0.1     0.2     0.3     0.0      65    0.00    0.06    0.03    0.07     0.0     0.0     0.0     0.0     0.0     0.0     0.0     0.0     0.0     0.0      0.      0.      1.      2.      2.      2.      2.      2.      5.      6.     0.0     0.0     0.0     0.0     0.0     0.0     0.0     0.0     0.0     0.0     0.0     0.0     0.0     0.0     0.0     0.0     0.0     0.0     0.0     0.0     0.0     0.0     0.0     0.0     0.0     0.0     0.0     0.0     0.0     0.0
   16 338    41    0.00    0.00    0.01    0.04    12.8   0.004   0.013   0.038   0.033     0.1     0.2     0.3     0.0      60    0.00    0.06    0.03    0.07     0.0     0.0     0.0     0.0     0.0     0.0     0.0     0.0     0.0     0.0      0.      0.      1.      2.      2.      2.      2.      2.      4.      5.     0.0     0.0     0.0     0.0     0.0     0.0     0.0     0.0     0.0     0.0     0.0     0.0     0.0     0.0     0.0     0.0     0.0     0.0     0.0     0.0     0.0     0.0     0.0     0.0     0.0     0.0     0.0     0.0     0.0     0.0
   16 339    42    0.00    0.00    0.01    0.04    12.8   0.004   0.013   0.038   0.033     0.1     0.2     0.3     0.0      55    0.00    0.06    0.03    0.06     0.0     0.0     0.0     0.0     0.0     0.0     0.0     0.0     0.0     0.0      0.      0.      1.      2.      2.      2.      2.      2.      4.      5.     0.0     0.0     0.0     0.0     0.0     0.0     0.0     0.0     0.0     0.0     0.0     0.0     0.0     0.0     0.0     0.0     0.0     0.0     0.0     0.0     0.0     0.0     0.0     0.0     0.0     0.0     0.0     0.0     0.0     0.0
   16 340    43    0.00    0.00    0.01    0.04    12.9   0.004   0.013   0.039   0.034     0.1     0.2     0.3     0.0      51    0.00    0.05    0.03    0.06     0.0     0.0     0.0     0.0     0.0     0.0     0.0     0.0     0.0     0.0      0.      0.      1.      2.      2.      2.      2.      2.      4.      5.     0.0     0.0     0.0     0.0     0.0     0.0     0.0     0.0     0.0     0.0     0.0     0.0     0.0     0.0     0.0     0.0     0.0     0.0     0.0     0.0     0.0     0.0     0.0     0.0     0.0     0.0     0.0     0.0     0.0     0.0
   16 341    44    0.00    0.00    0.01    0.04    12.9   0.004   0.013   0.039   0.034     0.1     0.2     0.3     0.0      48    0.00    0.05    0.03    0.06     0.0     0.0     0.0     0.0     0.0     0.0     0.0     0.0     0.0     0.0      0.      0.      1.      2.      2.      2.      2.      2.      4.      4.     0.0     0.0     0.0     0.0     0.0     0.0     0.0     0.0     0.0     0.0     0.0     0.0     0.0     0.0     0.0     0.0     0.0     0.0     0.0     0.0     0.0     0.0     0.0     0.0     0.0     0.0     0.0     0.0     0.0     0.0
   16 342    45    0.00    0.00    0.01    0.04    13.0   0.004   0.013   0.039   0.034     0.1     0.2     0.3     0.0      42    0.00    0.04    0.00    0.05     0.0     0.0     0.0     0.0     0.0     0.0     0.0     0.0     0.0     0.0      0.      0.      1.      1.      1.      1.      2.      2.      3.      4.     0.0     0.0     0.0     0.0     0.0     0.0     0.0     0.0     0.0     0.0     0.0     0.0     0.0     0.0     0.0     0.0     0.0     0.0     0.0     0.0     0.0     0.0     0.0     0.0     0.0     0.0     0.0     0.0     0.0     0.0
   16 343    46    0.00    0.00    0.01    0.04    13.0   0.004   0.013   0.039   0.034     0.1     0.3     0.3     0.0      37    0.00    0.04    0.00    0.04     0.0     0.0     0.0     0.0     0.0     0.0     0.0     0.0     0.0     0.0      0.      0.      1.      1.      1.      1.      1.      1.      3.      3.     0.0     0.0     0.0     0.0     0.0     0.0     0.0     0.0     0.0     0.0     0.0     0.0     0.0     0.0     0.0     0.0     0.0     0.0     0.0     0.0     0.0     0.0     0.0     0.0     0.0     0.0     0.0     0.0     0.0     0.0
   16 344    47    0.00    0.00    0.01    0.04    13.0   0.004   0.013   0.039   0.034     0.2     0.3     0.4     0.0      35    0.00    0.04    0.00    0.04     0.0     0.0     0.0     0.0     0.0     0.0     0.0     0.0     0.0     0.0      0.      0.      1.      1.      1.      1.      1.      1.      3.      3.     0.0     0.0     0.0     0.0     0.0     0.0     0.0     0.0     0.0     0.0     0.0     0.0     0.0     0.0     0.0     0.0     0.0     0.0     0.0     0.0     0.0     0.0     0.0     0.0     0.0     0.0     0.0     0.0     0.0     0.0
   16 345    48    0.00    0.00    0.01    0.04    13.1   0.004   0.013   0.039   0.034     0.2     0.3     0.4     0.0      35    0.00    0.04    0.00    0.04     0.0     0.0     0.0     0.0     0.0     0.0     0.0     0.0     0.0     0.0      0.      0.      1.      1.      1.      1.      1.      1.      3.      3.     0.0     0.0     0.0     0.0     0.0     0.0     0.0     0.0     0.0     0.0     0.0     0.0     0.0     0.0     0.0     0.0     0.0     0.0     0.0     0.0     0.0     0.0     0.0     0.0     0.0     0.0     0.0     0.0     0.0     0.0
   16 346    49    0.00    0.00    0.01    0.04    13.1   0.004   0.013   0.039   0.034     0.2     0.3     0.4     0.0      35    0.00    0.03    0.00    0.04     0.0     0.0     0.0     0.0     0.0     0.0     0.0     0.0     0.0     0.0      0.      0.      1.      1.      1.      1.      1.      1.      3.      3.     0.0     0.0     0.0     0.0     0.0     0.0     0.0     0.0     0.0     0.0     0.0     0.0     0.0     0.0     0.0     0.0     0.0     0.0     0.0     0.0     0.0     0.0     0.0     0.0     0.0     0.0     0.0     0.0     0.0     0.0
   16 347    50    0.00    0.00    0.01    0.04    13.1   0.004   0.013   0.039   0.034     0.2     0.3     0.4     0.0      34    0.00    0.03    0.00    0.04     0.0     0.0     0.0     0.0     0.0     0.0     0.0     0.0     0.0     0.0      0.      0.      1.      1.      1.      1.      1.      1.      3.      3.     0.0     0.0     0.0     0.0     0.0     0.0     0.0     0.0     0.0     0.0     0.0     0.0     0.0     0.0     0.0     0.0     0.0     0.0     0.0     0.0     0.0     0.0     0.0     0.0     0.0     0.0     0.0     0.0     0.0     0.0
   16 348    51    0.00    0.00    0.01    0.04    13.2   0.004   0.013   0.039   0.034     0.2     0.3     0.4     0.0      33    0.00    0.03    0.00    0.04     0.0     0.0     0.0     0.0     0.0     0.0     0.0     0.0     0.0     0.0      0.      0.      1.      1.      1.      1.      1.      1.      3.      3.     0.0     0.0     0.0     0.0     0.0     0.0     0.0     0.0     0.0     0.0     0.0     0.0     0.0     0.0     0.0     0.0     0.0     0.0     0.0     0.0     0.0     0.0     0.0     0.0     0.0     0.0     0.0     0.0     0.0     0.0
   16 349    52    0.00    0.00    0.01    0.04    13.2   0.004   0.013   0.039   0.034     0.2     0.4     0.4     0.0      32    0.00    0.03    0.03    0.04     0.0     0.0     0.0     0.0     0.0     0.0     0.0     0.0     0.0     0.0      0.      0.      1.      1.      1.      1.      1.      1.      3.      3.     0.0     0.0     0.0     0.0     0.0     0.0     0.0     0.0     0.0     0.0     0.0     0.0     0.0     0.0     0.0     0.0     0.0     0.0     0.0     0.0     0.0     0.0     0.0     0.0     0.0     0.0     0.0     0.0     0.0     0.0
   16 350    53    0.00    0.00    0.01    0.04    13.2   0.004   0.013   0.039   0.034     0.2     0.4     0.4     0.0      32    0.00    0.03    0.03    0.04     0.0     0.0     0.0     0.0     0.0     0.0     0.0     0.0     0.0     0.0      0.      0.      1.      1.      1.      1.      1.      1.      3.      3.     0.0     0.0     0.0     0.0     0.0     0.0     0.0     0.0     0.0     0.0     0.0     0.0     0.0     0.0     0.0     0.0     0.0     0.0     0.0     0.0     0.0     0.0     0.0     0.0     0.0     0.0     0.0     0.0     0.0     0.0
   16 351    54    0.00    0.01    0.01    0.04    13.3   0.004   0.013   0.039   0.034     0.2     0.4     0.4     0.0      31    0.00    0.03    0.03    0.04     0.0     0.0     0.0     0.0     0.0     0.0     0.0     0.0     0.0     0.0      0.      0.      1.      1.      1.      1.      1.      1.      2.      3.     0.0     0.0     0.0     0.0     0.0     0.0     0.0     0.0     0.0     0.0     0.0     0.0     0.0     0.0     0.0     0.0     0.0     0.0     0.0     0.0     0.0     0.0     0.0     0.0     0.0     0.0     0.0     0.0     0.0     0.0
   16 352    55    0.00    0.01    0.01    0.04    13.3   0.004   0.013   0.039   0.034     0.2     0.4     0.4     0.3      30    0.04    0.03    0.30    0.07     0.0     0.0     0.0     0.0     0.0     0.0     0.0     0.0     0.0     0.0      0.      0.      1.      1.      1.      1.      1.      1.      2.      2.     0.0     0.0     0.0     0.0     0.0     0.0     0.0     0.0     0.0     0.0     0.0     0.0     0.0     0.0     0.0     0.0     0.0     0.0     0.0     0.0     0.0     0.0     0.0     0.0     0.0     0.0     0.0     0.0     0.0     0.0
   16 353    56    0.00    0.01    0.01    0.04    13.3   0.005   0.013   0.039   0.034     0.2     0.4     0.4     0.3      28    0.04    0.03    0.30    0.07     0.0     0.0     0.0     0.0     0.0     0.0     0.0     0.0     0.0     0.0      0.      0.      1.      1.      1.      1.      1.      1.      2.      2.     0.0     0.0     0.0     0.0     0.0     0.0     0.0     0.0     0.0     0.0     0.0     0.0     0.0     0.0     0.0     0.0     0.0     0.0     0.0     0.0     0.0     0.0     0.0     0.0     0.0     0.0     0.0     0.0     0.0     0.0
   16 354    57    0.00    0.01    0.01    0.04    13.3   0.005   0.013   0.040   0.034     0.2     0.4     0.4     0.3      26    0.04    0.03    0.30    0.06     0.0     0.0     0.0     0.0     0.0     0.0     0.0     0.0     0.0     0.0      0.      0.      1.      1.      1.      1.      1.      1.      2.      2.     0.0     0.0     0.0     0.0     0.0     0.0     0.0     0.0     0.0     0.0     0.0     0.0     0.0     0.0     0.0     0.0     0.0     0.0     0.0     0.0     0.0     0.0     0.0     0.0     0.0     0.0     0.0     0.0     0.0     0.0
   16 355    58    0.00    0.01    0.01    0.04    13.4   0.005   0.013   0.040   0.034     0.2     0.4     0.4     0.0      24    0.00    0.02    0.03    0.03     0.0     0.0     0.0     0.0     0.0     0.0     0.0     0.0     0.0     0.0      0.      0.      0.      1.      1.      1.      1.      1.      2.      2.     0.0     0.0     0.0     0.0     0.0     0.0     0.0     0.0     0.0     0.0     0.0     0.0     0.0     0.0     0.0     0.0     0.0     0.0     0.0     0.0     0.0     0.0     0.0     0.0     0.0     0.0     0.0     0.0     0.0     0.0
   16 356    59    0.00    0.01    0.01    0.04    13.4   0.005   0.013   0.040   0.034     0.2     0.4     0.4     0.0      21    0.00    0.02    0.03    0.03     0.0     0.0     0.0     0.0     0.0     0.0     0.0     0.0     0.0     0.0      0.      0.      0.      1.      1.      1.      1.      1.      1.      2.     0.0     0.0     0.0     0.0     0.0     0.0     0.0     0.0     0.0     0.0     0.0     0.0     0.0     0.0     0.0     0.0     0.0     0.0     0.0     0.0     0.0     0.0     0.0     0.0     0.0     0.0     0.0     0.0     0.0     0.0
   16 357    60    0.01    0.01    0.01    0.04    13.4   0.005   0.013   0.040   0.034     0.2     0.4     0.4     0.0      20    0.00    0.02    0.03    0.00     0.0     0.0     0.0     0.0     0.0     0.0     0.0     0.0     0.0     0.0      0.      0.      0.      1.      1.      1.      1.      1.      1.      1.     0.0     0.0     0.0     0.0     0.0     0.0     0.0     0.0     0.0     0.0     0.0     0.0     0.0     0.0     0.0     0.0     0.0     0.0     0.0     0.0     0.0     0.0     0.0     0.0     0.0     0.0     0.0     0.0     0.0     0.0
   16 358    61    0.01    0.01    0.02    0.04    13.4   0.005   0.013   0.040   0.034     0.2     0.4     0.4     0.0      18    0.00    0.02    0.00    0.02     0.0     0.0     0.0     0.0     0.0     0.0     0.0     0.0     0.0     0.0      0.      0.      0.      1.      1.      1.      1.      1.      1.      1.     0.0     0.0     0.0     0.0     0.0     0.0     0.0     0.0     0.0     0.0     0.0     0.0     0.0     0.0     0.0     0.0     0.0     0.0     0.0     0.0     0.0     0.0     0.0     0.0     0.0     0.0     0.0     0.0     0.0     0.0
   16 359    62    0.01    0.01    0.02    0.04    13.4   0.005   0.013   0.040   0.034     0.2     0.4     0.4     0.0      17    0.00    0.02    0.00    0.02     0.0     0.0     0.0     0.0     0.0     0.0     0.0     0.0     0.0     0.0      0.      0.      0.      1.      1.      1.      1.      1.      1.      1.     0.0     0.0     0.0     0.0     0.0     0.0     0.0     0.0     0.0     0.0     0.0     0.0     0.0     0.0     0.0     0.0     0.0     0.0     0.0     0.0     0.0     0.0     0.0     0.0     0.0     0.0     0.0     0.0     0.0     0.0
   16 360    63    0.01    0.01    0.02    0.04    13.5   0.005   0.013   0.040   0.034     0.2     0.4     0.3     0.0      16    0.00    0.02    0.00    0.02     0.0     0.0     0.0     0.0     0.0     0.0     0.0     0.0     0.0     0.0      0.      0.      0.      1.      1.      1.      1.      1.      1.      1.     0.0     0.0     0.0     0.0     0.0     0.0     0.0     0.0     0.0     0.0     0.0     0.0     0.0     0.0     0.0     0.0     0.0     0.0     0.0     0.0     0.0     0.0     0.0     0.0     0.0     0.0     0.0     0.0     0.0     0.0
   16 361    64    0.01    0.01    0.02    0.04    13.5   0.005   0.013   0.040   0.034     0.2     0.5     0.4     0.0      17    0.00    0.02    0.00    0.02     0.0     0.0     0.0     0.0     0.0     0.0     0.0     0.0     0.0     0.0      0.      0.      0.      1.      1.      1.      1.      1.      1.      1.     0.0     0.0     0.0     0.0     0.0     0.0     0.0     0.0     0.0     0.0     0.0     0.0     0.0     0.0     0.0     0.0     0.0     0.0     0.0     0.0     0.0     0.0     0.0     0.0     0.0     0.0     0.0     0.0     0.0     0.0
   16 362    65    0.01    0.01    0.02    0.04    13.5   0.005   0.013   0.040   0.034     0.2     0.5     0.3     0.0      17    0.00    0.02    0.00    0.02     0.0     0.0     0.0     0.0     0.0     0.0     0.0     0.0     0.0     0.0      0.      0.      0.      1.      1.      1.      1.      1.      1.      1.     0.0     0.0     0.0     0.0     0.0     0.0     0.0     0.0     0.0     0.0     0.0     0.0     0.0     0.0     0.0     0.0     0.0     0.0     0.0     0.0     0.0     0.0     0.0     0.0     0.0     0.0     0.0     0.0     0.0     0.0
   16 363    66    0.01    0.01    0.02    0.04    13.5   0.005   0.014   0.040   0.034     0.2     0.5     0.4     0.0      19    0.00    0.02    0.00    0.02     0.0     0.0     0.0     0.0     0.0     0.0     0.0     0.0     0.0     0.0      0.      0.      0.      1.      1.      1.      1.      1.      1.      1.     0.0     0.0     0.0     0.0     0.0     0.0     0.0     0.0     0.0     0.0     0.0     0.0     0.0     0.0     0.0     0.0     0.0     0.0     0.0     0.0     0.0     0.0     0.0     0.0     0.0     0.0     0.0     0.0     0.0     0.0
   16 364    67    0.01    0.01    0.02    0.04    13.5   0.005   0.014   0.040   0.034     0.2     0.5     0.4     0.0      21    0.00    0.02    0.03    0.03     0.0     0.0     0.0     0.0     0.0     0.0     0.0     0.0     0.0     0.0      0.      0.      0.      1.      1.      1.      1.      1.      1.      1.     0.0     0.0     0.0     0.0     0.0     0.0     0.0     0.0     0.0     0.0     0.0     0.0     0.0     0.0     0.0     0.0     0.0     0.0     0.0     0.0     0.0     0.0     0.0     0.0     0.0     0.0     0.0     0.0     0.0     0.0
   16 365    68    0.01    0.01    0.02    0.04    13.6   0.005   0.014   0.040   0.034     0.2     0.5     0.4     0.4      22    0.04    0.02    0.31    0.06     0.0     0.0     0.0     0.0     0.0     0.0     0.0     0.0     0.0     0.0      0.      0.      0.      1.      1.      1.      1.      1.      1.      1.     0.0     0.0     0.0     0.0     0.0     0.0     0.0     0.0     0.0     0.0     0.0     0.0     0.0     0.0     0.0     0.0     0.0     0.0     0.0     0.0     0.0     0.0     0.0     0.0     0.0     0.0     0.0     0.0     0.0     0.0
   16 366    69    0.01    0.01    0.02    0.04    13.6   0.005   0.014   0.040   0.035     0.2     0.5     0.4     0.3      21    0.04    0.02    0.30    0.06     0.0     0.0     0.0     0.0     0.0     0.0     0.0     0.0     0.0     0.0      0.      0.      0.      0.      1.      0.      1.      1.      1.      1.     0.0     0.0     0.0     0.0     0.0     0.0     0.0     0.0     0.0     0.0     0.0     0.0     0.0     0.0     0.0     0.0     0.0     0.0     0.0     0.0     0.0     0.0     0.0     0.0     0.0     0.0     0.0     0.0     0.0     0.0
   17 001    70    0.01    0.01    0.02    0.04    13.6   0.005   0.014   0.040   0.035     0.2     0.5     0.4     0.0      18    0.00    0.02    0.00    0.02     0.0     0.0     0.0     0.0     0.0     0.0     0.0     0.0     0.0     0.0      0.      0.      0.      0.      0.      0.      0.      0.      1.      1.     0.0     0.0     0.0     0.0     0.0     0.0     0.0     0.0     0.0     0.0     0.0     0.0     0.0     0.0     0.0     0.0     0.0     0.0     0.0     0.0     0.0     0.0     0.0     0.0     0.0     0.0     0.0     0.0     0.0     0.0
   17 002    71    0.01    0.01    0.02    0.04    13.6   0.005   0.014   0.040   0.035     0.2     0.5     0.4     0.0      15    0.00    0.02    0.00    0.00     0.0     0.0     0.0     0.0     0.0     0.0     0.0     0.0     0.0     0.0      0.      0.      0.      0.      0.      0.      0.      0.      1.      1.     0.0     0.0     0.0     0.0     0.0     0.0     0.0     0.0     0.0     0.0     0.0     0.0     0.0     0.0     0.0     0.0     0.0     0.0     0.0     0.0     0.0     0.0     0.0     0.0     0.0     0.0     0.0     0.0     0.0     0.0
   17 003    72    0.01    0.01    0.02    0.04    13.6   0.005   0.014   0.040   0.035     0.2     0.5     0.4     0.0      13    0.00    0.01    0.00    0.01     0.0     0.0     0.0     0.0     0.0     0.0     0.0     0.0     0.0     0.0      0.      0.      0.      0.      0.      0.      0.      0.      1.      1.     0.0     0.0     0.0     0.0     0.0     0.0     0.0     0.0     0.0     0.0     0.0     0.0     0.0     0.0     0.0     0.0     0.0     0.0     0.0     0.0     0.0     0.0     0.0     0.0     0.0     0.0     0.0     0.0     0.0     0.0
   17 004    73    0.01    0.01    0.02    0.04    13.6   0.005   0.014   0.040   0.035     0.2     0.5     0.4     0.0      12    0.00    0.01    0.00    0.00     0.0     0.0     0.0     0.0     0.0     0.0     0.0     0.0     0.0     0.0      0.      0.      0.      0.      0.      0.      0.      0.      1.      1.     0.0     0.0     0.0     0.0     0.0     0.0     0.0     0.0     0.0     0.0     0.0     0.0     0.0     0.0     0.0     0.0     0.0     0.0     0.0     0.0     0.0     0.0     0.0     0.0     0.0     0.0     0.0     0.0     0.0     0.0
   17 005    74    0.01    0.01    0.02    0.04    13.6   0.005   0.014   0.040   0.035     0.2     0.5     0.3     0.0      11    0.00    0.01    0.00    0.01     0.0     0.0     0.0     0.0     0.0     0.0     0.0     0.0     0.0     0.0      0.      0.      0.      0.      0.      0.      0.      0.      1.      1.     0.0     0.0     0.0     0.0     0.0     0.0     0.0     0.0     0.0     0.0     0.0     0.0     0.0     0.0     0.0     0.0     0.0     0.0     0.0     0.0     0.0     0.0     0.0     0.0     0.0     0.0     0.0     0.0     0.0     0.0
   17 006    75    0.01    0.01    0.02    0.04    13.7   0.005   0.014   0.040   0.035     0.2     0.5     0.3     0.0      11    0.00    0.01    0.00    0.01     0.0     0.0     0.0     0.0     0.0     0.0     0.0     0.0     0.0     0.0      0.      0.      0.      0.      0.      0.      0.      0.      1.      1.     0.0     0.0     0.0     0.0     0.0     0.0     0.0     0.0     0.0     0.0     0.0     0.0     0.0     0.0     0.0     0.0     0.0     0.0     0.0     0.0     0.0     0.0     0.0     0.0     0.0     0.0     0.0     0.0     0.0     0.0
   17 007    76    0.01    0.02    0.02    0.04    13.7   0.005   0.014   0.040   0.035     0.2     0.5     0.3     0.0       9    0.00    0.01    0.00    0.00     0.0     0.0     0.0     0.0     0.0     0.0     0.0     0.0     0.0     0.0      0.      0.      0.      0.      0.      0.      0.      0.      0.      1.     0.0     0.0     0.0     0.0     0.0     0.0     0.0     0.0     0.0     0.0     0.0     0.0     0.0     0.0     0.0     0.0     0.0     0.0     0.0     0.0     0.0     0.0     0.0     0.0     0.0     0.0     0.0     0.0     0.0     0.0
   17 008    77    0.01    0.02    0.02    0.04    13.7   0.005   0.014   0.040   0.035     0.2     0.5     0.3     0.0       8    0.00    0.01    0.00    0.00     0.0     0.0     0.0     0.0     0.0     0.0     0.0     0.0     0.0     0.0      0.      0.      0.      0.      0.      0.      0.      0.      0.      0.     0.0     0.0     0.0     0.0     0.0     0.0     0.0     0.0     0.0     0.0     0.0     0.0     0.0     0.0     0.0     0.0     0.0     0.0     0.0     0.0     0.0     0.0     0.0     0.0     0.0     0.0     0.0     0.0     0.0     0.0
   17 009    78    0.01    0.02    0.02    0.04    13.7   0.005   0.014   0.040   0.035     0.2     0.5     0.3     0.0       7    0.00    0.01    0.00    0.01     0.0     0.0     0.0     0.0     0.0     0.0     0.0     0.0     0.0     0.0      0.      0.      0.      0.      0.      0.      0.      0.      0.      0.     0.0     0.0     0.0     0.0     0.0     0.0     0.0     0.0     0.0     0.0     0.0     0.0     0.0     0.0     0.0     0.0     0.0     0.0     0.0     0.0     0.0     0.0     0.0     0.0     0.0     0.0     0.0     0.0     0.0     0.0
   17 010    79    0.01    0.02    0.02    0.04    13.7   0.005   0.014   0.040   0.035     0.2     0.5     0.3     0.0       7    0.00    0.01    0.00    0.01     0.0     0.0     0.0     0.0     0.0     0.0     0.0     0.0     0.0     0.0      0.      0.      0.      0.      0.      0.      0.      0.      0.      0.     0.0     0.0     0.0     0.0     0.0     0.0     0.0     0.0     0.0     0.0     0.0     0.0     0.0     0.0     0.0     0.0     0.0     0.0     0.0     0.0     0.0     0.0     0.0     0.0     0.0     0.0     0.0     0.0     0.0     0.0
   17 011    80    0.01    0.02    0.02    0.04    13.7   0.005   0.014   0.040   0.035     0.2     0.5     0.3     0.0       6    0.00    0.01    0.00    0.01     0.0     0.0     0.0     0.0     0.0     0.0     0.0     0.0     0.0     0.0      0.      0.      0.      0.      0.      0.      0.      0.      0.      0.     0.0     0.0     0.0     0.0     0.0     0.0     0.0     0.0     0.0     0.0     0.0     0.0     0.0     0.0     0.0     0.0     0.0     0.0     0.0     0.0     0.0     0.0     0.0     0.0     0.0     0.0     0.0     0.0     0.0     0.0
   17 012    81    0.01    0.02    0.02    0.04    13.7   0.005   0.014   0.040   0.035     0.2     0.5     0.3     0.0       7    0.00    0.01    0.00    0.01     0.0     0.0     0.0     0.0     0.0     0.0     0.0     0.0     0.0     0.0      0.      0.      0.      0.      0.      0.      0.      0.      0.      0.     0.0     0.0     0.0     0.0     0.0     0.0     0.0     0.0     0.0     0.0     0.0     0.0     0.0     0.0     0.0     0.0     0.0     0.0     0.0     0.0     0.0     0.0     0.0     0.0     0.0     0.0     0.0     0.0     0.0     0.0
   17 013    82    0.01    0.02    0.02    0.04    13.7   0.005   0.014   0.040   0.035     0.1     0.3     0.2     0.0       8    0.00    0.01    0.00    0.01     0.0     0.0     0.0     0.0     0.0     0.0     0.0     0.0     0.0     0.0      0.      0.      0.      0.      0.      0.      0.      0.      0.      1.     0.0     0.0     0.0     0.0     0.0     0.0     0.0     0.0     0.0     0.0     0.0     0.0     0.0     0.0     0.0     0.0     0.0     0.0     0.0     0.0     0.0     0.0     0.0     0.0     0.0     0.0     0.0     0.0     0.0     0.0
   17 014    83    0.01    0.02    0.02    0.04    13.7   0.005   0.014   0.040   0.035     0.2     0.4     0.2     0.0       8    0.00    0.01    0.00    0.00     0.0     0.0     0.0     0.0     0.0     0.0     0.0     0.0     0.0     0.0      0.      0.      0.      0.      0.      0.      0.      0.      0.      1.     0.0     0.0     0.0     0.0     0.0     0.0     0.0     0.0     0.0     0.0     0.0     0.0     0.0     0.0     0.0     0.0     0.0     0.0     0.0     0.0     0.0     0.0     0.0     0.0     0.0     0.0     0.0     0.0     0.0     0.0
   17 015    84    0.01    0.02    0.02    0.04    13.7   0.005   0.014   0.040   0.035     0.2     0.5     0.3     0.0       7    0.00    0.01    0.00    0.00     0.0     0.0     0.0     0.0     0.0     0.0     0.0     0.0     0.0     0.0      0.      0.      0.      0.      0.      0.      0.      0.      0.      1.     0.0     0.0     0.0     0.0     0.0     0.0     0.0     0.0     0.0     0.0     0.0     0.0     0.0     0.0     0.0     0.0     0.0     0.0     0.0     0.0     0.0     0.0     0.0     0.0     0.0     0.0     0.0     0.0     0.0     0.0
   17 016    85    0.01    0.02    0.02    0.04    13.7   0.005   0.014   0.040   0.035     0.2     0.5     0.3     0.0       7    0.00    0.01    0.00    0.00     0.0     0.0     0.0     0.0     0.0     0.0     0.0     0.0     0.0     0.0      0.      0.      0.      0.      0.      0.      0.      0.      0.      0.     0.0     0.0     0.0     0.0     0.0     0.0     0.0     0.0     0.0     0.0     0.0     0.0     0.0     0.0     0.0     0.0     0.0     0.0     0.0     0.0     0.0     0.0     0.0     0.0     0.0     0.0     0.0     0.0     0.0     0.0
   17 017    86    0.01    0.02    0.02    0.04    13.7   0.005   0.014   0.040   0.035     0.2     0.5     0.3     0.0       6    0.00    0.01    0.00    0.01     0.0     0.0     0.0     0.0     0.0     0.0     0.0     0.0     0.0     0.0      0.      0.      0.      0.      0.      0.      0.      0.      0.      0.     0.0     0.0     0.0     0.0     0.0     0.0     0.0     0.0     0.0     0.0     0.0     0.0     0.0     0.0     0.0     0.0     0.0     0.0     0.0     0.0     0.0     0.0     0.0     0.0     0.0     0.0     0.0     0.0     0.0     0.0
   17 018    87    0.01    0.02    0.02    0.04    13.7   0.005   0.014   0.040   0.035     0.2     0.5     0.3     0.0       5    0.00    0.01    0.00    0.01     0.0     0.0     0.0     0.0     0.0     0.0     0.0     0.0     0.0     0.0      0.      0.      0.      0.      0.      0.      0.      0.      0.      0.     0.0     0.0     0.0     0.0     0.0     0.0     0.0     0.0     0.0     0.0     0.0     0.0     0.0     0.0     0.0     0.0     0.0     0.0     0.0     0.0     0.0     0.0     0.0     0.0     0.0     0.0     0.0     0.0     0.0     0.0
   17 019    88    0.01    0.02    0.02    0.04    13.7   0.005   0.014   0.040   0.035     0.2     0.5     0.3     0.0       5    0.00    0.00    0.00    0.01     0.0     0.0     0.0     0.0     0.0     0.0     0.0     0.0     0.0     0.0      0.      0.      0.      0.      0.      0.      0.      0.      0.      0.     0.0     0.0     0.0     0.0     0.0     0.0     0.0     0.0     0.0     0.0     0.0     0.0     0.0     0.0     0.0     0.0     0.0     0.0     0.0     0.0     0.0     0.0     0.0     0.0     0.0     0.0     0.0     0.0     0.0     0.0
   17 020    89    0.01    0.02    0.02    0.04    13.8   0.005   0.014   0.040   0.035     0.2     0.5     0.3     0.0       4    0.00    0.00    0.00    0.00     0.0     0.0     0.0     0.0     0.0     0.0     0.0     0.0     0.0     0.0      0.      0.      0.      0.      0.      0.      0.      0.      0.      0.     0.0     0.0     0.0     0.0     0.0     0.0     0.0     0.0     0.0     0.0     0.0     0.0     0.0     0.0     0.0     0.0     0.0     0.0     0.0     0.0     0.0     0.0     0.0     0.0     0.0     0.0     0.0     0.0     0.0     0.0
   17 021    90    0.01    0.02    0.02    0.04    13.8   0.005   0.014   0.040   0.035     0.2     0.5     0.3     0.0       4    0.00    0.00    0.00    0.00     0.0     0.0     0.0     0.0     0.0     0.0     0.0     0.0     0.0     0.0      0.      0.      0.      0.      0.      0.      0.      0.      0.      0.     0.0     0.0     0.0     0.0     0.0     0.0     0.0     0.0     0.0     0.0     0.0     0.0     0.0     0.0     0.0     0.0     0.0     0.0     0.0     0.0     0.0     0.0     0.0     0.0     0.0     0.0     0.0     0.0     0.0     0.0
   17 022    91    0.01    0.02    0.02    0.04    13.8   0.005   0.014   0.040   0.035     0.2     0.5     0.3     0.0       3    0.00    0.00    0.00    0.00     0.0     0.0     0.0     0.0     0.0     0.0     0.0     0.0     0.0     0.0      0.      0.      0.      0.      0.      0.      0.      0.      0.      0.     0.0     0.0     0.0     0.0     0.0     0.0     0.0     0.0     0.0     0.0     0.0     0.0     0.0     0.0     0.0     0.0     0.0     0.0     0.0     0.0     0.0     0.0     0.0     0.0     0.0     0.0     0.0     0.0     0.0     0.0
   17 023    92    0.01    0.02    0.03    0.04    13.8   0.005   0.014   0.040   0.035     0.2     0.5     0.3     0.0       3    0.00    0.00    0.00    0.00     0.0     0.0     0.0     0.0     0.0     0.0     0.0     0.0     0.0     0.0      0.      0.      0.      0.      0.      0.      0.      0.      0.      0.     0.0     0.0     0.0     0.0     0.0     0.0     0.0     0.0     0.0     0.0     0.0     0.0     0.0     0.0     0.0     0.0     0.0     0.0     0.0     0.0     0.0     0.0     0.0     0.0     0.0     0.0     0.0     0.0     0.0     0.0
   17 024    93    0.01    0.02    0.03    0.04    13.8   0.005   0.014   0.040   0.035     0.2     0.5     0.3     0.0       3    0.00    0.00    0.00    0.00     0.0     0.0     0.0     0.0     0.0     0.0     0.0     0.0     0.0     0.0      0.      0.      0.      0.      0.      0.      0.      0.      0.      0.     0.0     0.0     0.0     0.0     0.0     0.0     0.0     0.0     0.0     0.0     0.0     0.0     0.0     0.0     0.0     0.0     0.0     0.0     0.0     0.0     0.0     0.0     0.0     0.0     0.0     0.0     0.0     0.0     0.0     0.0
   17 025    94    0.01    0.02    0.03    0.04    13.8   0.005   0.014   0.040   0.035     0.2     0.5     0.3     0.0       2    0.00    0.00    0.00    0.00     0.0     0.0     0.0     0.0     0.0     0.0     0.0     0.0     0.0     0.0      0.      0.      0.      0.      0.      0.      0.      0.      0.      0.     0.0     0.0     0.0     0.0     0.0     0.0     0.0     0.0     0.0     0.0     0.0     0.0     0.0     0.0     0.0     0.0     0.0     0.0     0.0     0.0     0.0     0.0     0.0     0.0     0.0     0.0     0.0     0.0     0.0     0.0
   17 026    95    0.01    0.02    0.03    0.04    13.8   0.005   0.014   0.040   0.035     0.2     0.5     0.3     0.0       2    0.00    0.00    0.00    0.00     0.0     0.0     0.0     0.0     0.0     0.0     0.0     0.0     0.0     0.0      0.      0.      0.      0.      0.      0.      0.      0.      0.      0.     0.0     0.0     0.0     0.0     0.0     0.0     0.0     0.0     0.0     0.0     0.0     0.0     0.0     0.0     0.0     0.0     0.0     0.0     0.0     0.0     0.0     0.0     0.0     0.0     0.0     0.0     0.0     0.0     0.0     0.0
   17 027    96    0.01    0.02    0.03    0.04    13.8   0.005   0.014   0.040   0.035     0.2     0.5     0.3     0.0       2    0.00    0.00    0.00    0.00     0.0     0.0     0.0     0.0     0.0     0.0     0.0     0.0     0.0     0.0      0.      0.      0.      0.      0.      0.      0.      0.      0.      0.     0.0     0.0     0.0     0.0     0.0     0.0     0.0     0.0     0.0     0.0     0.0     0.0     0.0     0.0     0.0     0.0     0.0     0.0     0.0     0.0     0.0     0.0     0.0     0.0     0.0     0.0     0.0     0.0     0.0     0.0
   17 028    97    0.01    0.03    0.03    0.04    13.8   0.005   0.014   0.040   0.035     0.2     0.5     0.3     0.0       2    0.00    0.00    0.00    0.00     0.0     0.0     0.0     0.0     0.0     0.0     0.0     0.0     0.0     0.0      0.      0.      0.      0.      0.      0.      0.      0.      0.      0.     0.0     0.0     0.0     0.0     0.0     0.0     0.0     0.0     0.0     0.0     0.0     0.0     0.0     0.0     0.0     0.0     0.0     0.0     0.0     0.0     0.0     0.0     0.0     0.0     0.0     0.0     0.0     0.0     0.0     0.0
   17 029    98    0.01    0.03    0.03    0.04    13.8   0.005   0.014   0.040   0.035     0.2     0.4     0.2     0.0       2    0.00    0.00    0.00    0.00     0.0     0.0     0.0     0.0     0.0     0.0     0.0     0.0     0.0     0.0      0.      0.      0.      0.      0.      0.      0.      0.      0.      0.     0.0     0.0     0.0     0.0     0.0     0.0     0.0     0.0     0.0     0.0     0.0     0.0     0.0     0.0     0.0     0.0     0.0     0.0     0.0     0.0     0.0     0.0     0.0     0.0     0.0     0.0     0.0     0.0     0.0     0.0
   17 030    99    0.01    0.03    0.03    0.04    13.8   0.005   0.014   0.040   0.035     0.2     0.4     0.2     0.0       2    0.00    0.00    0.00    0.01     0.0     0.0     0.0     0.0     0.0     0.0     0.0     0.0     0.0     0.0      0.      0.      0.      0.      0.      0.      0.      0.      0.      0.     0.0     0.0     0.0     0.0     0.0     0.0     0.0     0.0     0.0     0.0     0.0     0.0     0.0     0.0     0.0     0.0     0.0     0.0     0.0     0.0     0.0     0.0     0.0     0.0     0.0     0.0     0.0     0.0     0.0     0.0
   17 031   100    0.01    0.03    0.03    0.04    13.8   0.005   0.014   0.040   0.035     0.1     0.4     0.2     0.0       2    0.00    0.00    0.00    0.01     0.0     0.0     0.0     0.0     0.0     0.0     0.0     0.0     0.0     0.0      0.      0.      0.      0.      0.      0.      0.      0.      0.      0.     0.0     0.0     0.0     0.0     0.0     0.0     0.0     0.0     0.0     0.0     0.0     0.0     0.0     0.0     0.0     0.0     0.0     0.0     0.0     0.0     0.0     0.0     0.0     0.0     0.0     0.0     0.0     0.0     0.0     0.0
   17 032   101    0.01    0.03    0.03    0.04    13.8   0.005   0.014   0.040   0.035     0.1     0.2     0.1     0.0       2    0.00    0.00    0.00    0.01     0.0     0.0     0.0     0.0     0.0     0.0     0.0     0.0     0.0     0.0      0.      0.      0.      0.      0.      0.      0.      0.      0.      0.     0.0     0.0     0.0     0.0     0.0     0.0     0.0     0.0     0.0     0.0     0.0     0.0     0.0     0.0     0.0     0.0     0.0     0.0     0.0     0.0     0.0     0.0     0.0     0.0     0.0     0.0     0.0     0.0     0.0     0.0
   17 033   102    0.01    0.03    0.03    0.04    13.8   0.005   0.014   0.040   0.035     0.1     0.3     0.2     0.0       3    0.00    0.00    0.00    0.01     0.0     0.0     0.0     0.0     0.0     0.0     0.0     0.0     0.0     0.0      0.      0.      0.      0.      0.      0.      0.      0.      0.      0.     0.0     0.0     0.0     0.0     0.0     0.0     0.0     0.0     0.0     0.0     0.0     0.0     0.0     0.0     0.0     0.0     0.0     0.0     0.0     0.0     0.0     0.0     0.0     0.0     0.0     0.0     0.0     0.0     0.0     0.0
   17 034   103    0.01    0.03    0.03    0.04    13.8   0.005   0.014   0.040   0.035     0.2     0.5     0.2     0.0       3    0.00    0.00    0.00    0.00     0.0     0.0     0.0     0.0     0.0     0.0     0.0     0.0     0.0     0.0      0.      0.      0.      0.      0.      0.      0.      0.      0.      0.     0.0     0.0     0.0     0.0     0.0     0.0     0.0     0.0     0.0     0.0     0.0     0.0     0.0     0.0     0.0     0.0     0.0     0.0     0.0     0.0     0.0     0.0     0.0     0.0     0.0     0.0     0.0     0.0     0.0     0.0
   17 035   104    0.01    0.03    0.03    0.04    13.8   0.005   0.014   0.040   0.035     0.2     0.4     0.2     0.0       3    0.00    0.00    0.00    0.00     0.0     0.0     0.0     0.0     0.0     0.0     0.0     0.0     0.0     0.0      0.      0.      0.      0.      0.      0.      0.      0.      0.      0.     0.0     0.0     0.0     0.0     0.0     0.0     0.0     0.0     0.0     0.0     0.0     0.0     0.0     0.0     0.0     0.0     0.0     0.0     0.0     0.0     0.0     0.0     0.0     0.0     0.0     0.0     0.0     0.0     0.0     0.0
   17 036   105    0.01    0.03    0.03    0.04    14.2   0.005   0.014   0.040   0.037     0.2     0.4     0.6     0.0     456    0.00    0.46    0.00    1.90     0.0     0.0     0.0     0.0     0.0     0.0     0.0     0.0     0.0     0.0    447.      6.      0.      0.      0.      0.      0.      0.      0.      0.     0.4     0.0     0.0     0.0     0.0     0.0     0.0     0.0     0.0     0.0     0.0     0.0     0.0     0.0     0.0     0.0     0.0     0.0     0.0     0.0     1.9     0.0     0.0     0.0     0.0     0.0     0.0     0.0     0.0     0.0
   17 037   106    0.01    0.03    0.03    0.04    15.1   0.005   0.015   0.040   0.040     0.4     0.4     1.1     0.0     863    0.00    0.86    0.00    3.41     0.0     0.0     0.0     0.0     0.0     0.0     0.0     0.0     0.0     0.0    849.     11.      0.      0.      0.      0.      0.      0.      0.      0.     0.8     0.0     0.0     0.0     0.0     0.0     0.0     0.0     0.0     0.0     0.0     0.0     0.0     0.0     0.0     0.0     0.0     0.0     0.0     0.0     3.4     0.0     0.0     0.0     0.0     0.0     0.0     0.0     0.0     0.0
   17 038   107    0.01    0.03    0.03    0.04    16.3   0.005   0.016   0.040   0.045     0.6     0.4     1.8     0.0    1174    0.00    1.17    0.00    4.69     0.0     0.0     0.0     0.0     0.0     0.0     0.0     0.0     0.0     0.0   1157.     14.      0.      0.      0.      0.      0.      0.      0.      0.     1.2     0.0     0.0     0.0     0.0     0.0     0.0     0.0     0.0     0.0     0.0     0.0     0.0     0.0     0.0     0.0     0.0     0.0     0.0     0.0     4.6     0.0     0.0     0.0     0.0     0.0     0.0     0.0     0.0     0.0
   17 039   108    0.02    0.03    0.03    0.04    17.7   0.005   0.018   0.040   0.050     0.7     0.4     2.6     0.0    1371    0.00    1.37    0.00    5.70     0.0     0.0     0.0     0.0     0.0     0.0     0.0     0.0     0.0     0.0   1352.     17.      0.      0.      0.      0.      0.      0.      0.      0.     1.4     0.0     0.0     0.0     0.0     0.0     0.0     0.0     0.0     0.0     0.0     0.0     0.0     0.0     0.0     0.0     0.0     0.0     0.0     0.0     5.6     0.1     0.0     0.0     0.0     0.0     0.0     0.0     0.0     0.0
   17 040   109    0.02    0.03    0.04    0.05    19.1   0.005   0.019   0.041   0.057     0.9     0.4     3.3     0.6    1446    0.07    1.45    0.52    6.19     0.0     0.0     0.0     0.0     0.0     0.0     0.0     0.0     0.0     0.0   1426.     18.      0.      0.      0.      0.      0.      0.      0.      0.     1.4     0.0     0.0     0.0     0.0     0.0     0.0     0.0     0.0     0.0     0.0     0.0     0.0     0.0     0.0     0.0     0.0     0.0     0.0     0.0     6.1     0.1     0.0     0.0     0.0     0.0     0.0     0.0     0.0     0.0
   17 041   110    0.02    0.03    0.04    0.05    20.5   0.005   0.020   0.041   0.063     1.0     0.4     3.9     0.0    1391    0.00    1.39    0.00    5.98     0.0     0.0     0.0     0.0     0.0     0.0     0.0     0.0     0.0     0.0   1372.     17.      0.      0.      0.      0.      0.      0.      0.      0.     1.4     0.0     0.0     0.0     0.0     0.0     0.0     0.0     0.0     0.0     0.0     0.0     0.0     0.0     0.0     0.0     0.0     0.0     0.0     0.0     5.9     0.1     0.0     0.0     0.0     0.0     0.0     0.0     0.0     0.0
   17 042   111    0.02    0.03    0.05    0.05    21.8   0.005   0.022   0.041   0.068     1.1     0.4     4.2     0.0    1273    0.00    1.27    0.00    5.52     0.0     0.0     0.0     0.0     0.0     0.0     0.0     0.0     0.0     0.0   1255.     16.      0.      0.      0.      0.      0.      0.      0.      0.     1.3     0.0     0.0     0.0     0.0     0.0     0.0     0.0     0.0     0.0     0.0     0.0     0.0     0.0     0.0     0.0     0.0     0.0     0.0     0.0     5.5     0.0     0.0     0.0     0.0     0.0     0.0     0.0     0.0     0.0
   17 043   112    0.02    0.03    0.05    0.05    23.0   0.005   0.023   0.041   0.074     1.2     0.4     4.6     0.0    1193    0.00    1.19    0.00    5.48     0.0     0.0     0.0     0.0     0.0     0.0     0.0     0.0     0.0     0.0   1176.     15.      0.      0.      0.      0.      0.      0.      0.      0.     1.2     0.0     0.0     0.0     0.0     0.0     0.0     0.0     0.0     0.0     0.0     0.0     0.0     0.0     0.0     0.0     0.0     0.0     0.0     0.0     5.4     0.0     0.0     0.0     0.0     0.0     0.0     0.0     0.0     0.0
   17 044   113    0.02    0.03    0.05    0.05    24.0   0.005   0.024   0.041   0.079     1.2     0.3     4.7     0.0    1071    0.00    1.07    0.00    5.00     0.0     0.0     0.0     0.0     0.0     0.0     0.0     0.0     0.0     0.0   1055.     14.      0.      0.      0.      0.      0.      0.      0.      0.     1.1     0.0     0.0     0.0     0.0     0.0     0.0     0.0     0.0     0.0     0.0     0.0     0.0     0.0     0.0     0.0     0.0     0.0     0.0     0.0     5.0     0.0     0.0     0.0     0.0     0.0     0.0     0.0     0.0     0.0
   17 045   114    0.02    0.03    0.06    0.05    25.0   0.005   0.025   0.041   0.083     1.2     0.3     4.8     0.0     987    0.00    0.99    0.00    4.79     0.0     0.0     0.0     0.0     0.0     0.0     0.0     0.0     0.0     0.0    971.     14.      0.      0.      0.      0.      0.      0.      0.      0.     1.0     0.0     0.0     0.0     0.0     0.0     0.0     0.0     0.0     0.0     0.0     0.0     0.0     0.0     0.0     0.0     0.0     0.0     0.0     0.0     4.7     0.0     0.0     0.0     0.0     0.0     0.0     0.0     0.0     0.0
   17 046   115    0.02    0.03    0.06    0.05    25.8   0.005   0.026   0.041   0.087     1.2     0.3     5.0     0.0     744    0.00    0.74    0.00    4.05     0.0     0.0     0.0     0.0     0.0     0.0     0.0     0.0     0.0     0.0    729.     14.      0.      0.      0.      0.      0.      0.      0.      0.     0.7     0.0     0.0     0.0     0.0     0.0     0.0     0.0     0.0     0.0     0.0     0.0     0.0     0.0     0.0     0.0     0.0     0.0     0.0     0.0     4.0     0.0     0.0     0.0     0.0     0.0     0.0     0.0     0.0     0.0
   17 047   116    0.02    0.03    0.07    0.05    26.3   0.005   0.026   0.041   0.100     1.1     0.3     6.8     0.0     563    0.00    0.56    0.00   12.33     0.0     0.0     0.0     0.0     0.0     0.0     0.0     0.0     0.0     0.0    548.     14.      0.      0.      0.      0.      0.      0.      0.      0.     0.5     0.0     0.0     0.0     0.0     0.0     0.0     0.0     0.0     0.0     0.0     0.0     0.0     0.0     0.0     0.0     0.0     0.0     0.0     0.0    12.2     0.2     0.0     0.0     0.0     0.0     0.0     0.0     0.0     0.0
   17 048   117    0.02    0.03    0.08    0.05    27.4   0.005   0.027   0.041   0.116     1.0     0.3     8.2     0.0    1094    0.00    1.09    0.00   16.46     0.0     0.0     0.0     0.0     0.0     0.0     0.0     0.0     0.0     0.0   1079.     14.      0.      0.      0.      0.      0.      0.      0.      0.     1.1     0.0     0.0     0.0     0.0     0.0     0.0     0.0     0.0     0.0     0.0     0.0     0.0     0.0     0.0     0.0     0.0     0.0     0.0     0.0    16.3     0.1     0.0     0.0     0.0     0.0     0.0     0.0     0.0     0.0
   17 049   118    0.03    0.03    0.09    0.05    28.7   0.005   0.029   0.041   0.128     1.0     0.3     8.3     0.0    1256    0.00    1.26    0.00   12.23     0.0     0.0     0.0     0.0     0.0     0.0     0.0     0.0     0.0     0.0   1241.     14.      0.      0.      0.      0.      0.      0.      0.      0.     1.2     0.0     0.0     0.0     0.0     0.0     0.0     0.0     0.0     0.0     0.0     0.0     0.0     0.0     0.0     0.0     0.0     0.0     0.0     0.0    12.1     0.1     0.0     0.0     0.0     0.0     0.0     0.0     0.0     0.0
   17 050   119    0.03    0.03    0.10    0.05    29.9   0.005   0.030   0.041   0.138     1.1     0.3     8.6     0.0    1192    0.00    1.19    0.00    9.54     0.0     0.0     0.0     0.0     0.0     0.0     0.0     0.0     0.0     0.0   1178.     13.      0.      0.      0.      0.      0.      0.      0.      0.     1.2     0.0     0.0     0.0     0.0     0.0     0.0     0.0     0.0     0.0     0.0     0.0     0.0     0.0     0.0     0.0     0.0     0.0     0.0     0.0     9.5     0.1     0.0     0.0     0.0     0.0     0.0     0.0     0.0     0.0
   17 051   120    0.03    0.03    0.11    0.05    31.0   0.005   0.031   0.041   0.145     1.1     0.3     8.4     0.0    1122    0.00    1.12    0.00    7.40     0.0     0.0     0.0     0.0     0.0     0.0     0.0     0.0     0.0     0.0   1108.     13.      0.      0.      0.      0.      0.      0.      0.      0.     1.1     0.0     0.0     0.0     0.0     0.0     0.0     0.0     0.0     0.0     0.0     0.0     0.0     0.0     0.0     0.0     0.0     0.0     0.0     0.0     7.3     0.1     0.0     0.0     0.0     0.0     0.0     0.0     0.0     0.0
   17 052   121    0.03    0.03    0.11    0.05    32.1   0.005   0.032   0.041   0.151     1.1     0.3     7.9     0.0    1120    0.00    1.12    0.00    5.88     0.0     0.0     0.0     0.0     0.0     0.0     0.0     0.0     0.0     0.0   1106.     13.      0.      0.      0.      0.      0.      0.      0.      0.     1.1     0.0     0.0     0.0     0.0     0.0     0.0     0.0     0.0     0.0     0.0     0.0     0.0     0.0     0.0     0.0     0.0     0.0     0.0     0.0     5.8     0.1     0.0     0.0     0.0     0.0     0.0     0.0     0.0     0.0
   17 053   122    0.03    0.03    0.12    0.05    33.1   0.005   0.033   0.041   0.153     0.8     0.2     5.0     0.6     959    0.06    0.96    0.50    1.63     0.0     0.0     0.0     0.0     0.0     0.0     0.0     0.0     0.0     0.0    946.     12.      0.      0.      0.      0.      0.      0.      0.      0.     0.9     0.0     0.0     0.0     0.0     0.0     0.0     0.0     0.0     0.0     0.0     0.0     0.0     0.0     0.0     0.0     0.0     0.0     0.0     0.0     1.5     0.0     0.0     0.0     0.0     0.0     0.0     0.0     0.0     0.0
   17 054   123    0.03    0.03    0.12    0.05    34.2   0.005   0.034   0.042   0.157     1.2     0.2     6.7     0.6    1153    0.07    1.15    0.52    4.61     0.0     0.0     0.0     0.0     0.0     0.0     0.0     0.0     0.0     0.0   1138.     13.      0.      0.      0.      0.      0.      0.      0.      0.     1.1     0.0     0.0     0.0     0.0     0.0     0.0     0.0     0.0     0.0     0.0     0.0     0.0     0.0     0.0     0.0     0.0     0.0     0.0     0.0     4.5     0.0     0.0     0.0     0.0     0.0     0.0     0.0     0.0     0.0
   17 055   124    0.03    0.03    0.13    0.05    35.5   0.005   0.035   0.042   0.162     1.2     0.2     6.4     0.6    1241    0.07    1.24    0.54    5.00     0.0     0.0     0.0     0.0     0.0     0.0     0.0     0.0     0.0     0.0   1222.     15.      0.      0.      0.      0.      0.      0.      0.      0.     1.2     0.0     0.0     0.0     0.0     0.0     0.0     0.0     0.0     0.0     0.0     0.0     0.0     0.0     0.0     0.0     0.0     0.0     0.0     0.0     4.9     0.0     0.0     0.0     0.0     0.0     0.0     0.0     0.0     0.0
   17 056   125    0.03    0.03    0.14    0.05    36.6   0.005   0.037   0.043   0.167     1.2     0.2     6.2     1.2    1171    0.14    1.17    1.07    4.90     0.0     0.0     0.0     0.0     0.0     0.0     0.0     0.0     0.0     0.0   1148.     12.      0.      0.      0.      0.      0.      0.      1.      1.     1.1     0.0     0.0     0.0     0.0     0.0     0.0     0.0     0.0     0.0     0.0     0.0     0.0     0.0     0.0     0.0     0.0     0.0     0.0     0.0     4.7     0.0     0.0     0.0     0.0     0.0     0.0     0.0     0.0     0.0
   17 057   126    0.03    0.03    0.14    0.05    37.6   0.005   0.038   0.045   0.172     1.2     0.2     6.1     1.8     997    0.20    1.00    1.56    4.69     0.0     0.0     0.0     0.0     0.0     0.0     0.0     0.0     0.0     0.0    972.      7.      1.      1.      1.      1.      1.      1.      1.      2.     1.0     0.0     0.0     0.0     0.0     0.0     0.0     0.0     0.0     0.0     0.0     0.0     0.0     0.0     0.0     0.0     0.0     0.0     0.0     0.0     4.5     0.0     0.0     0.0     0.0     0.0     0.0     0.0     0.0     0.0
   17 058   127    0.04    0.04    0.15    0.06    38.4   0.006   0.038   0.050   0.176     1.2     0.2     5.9     5.4     767    0.58    0.77    4.78    4.33     0.0     0.0     0.0     0.0     0.0     0.5     0.4     0.4     0.6     0.6    741.      4.      1.      1.      1.      1.      1.      1.      2.      2.     0.7     0.0     0.0     0.0     0.0     0.0     0.0     0.0     0.1     0.1     0.0     0.0     0.0     0.0     0.0     0.4     0.4     0.4     0.6     0.5     3.7     0.0     0.0     0.0     0.0     0.1     0.1     0.1     0.1     0.1
   17 059   128    0.04    0.04    0.15    0.06    38.8   0.006   0.039   0.055   0.180     1.1     0.2     5.6     5.9     441    0.61    0.44    5.27    3.10     0.0     0.1     0.0     0.1     0.4     0.5     0.4     0.4     0.6     0.6    416.      2.      1.      1.      1.      1.      1.      1.      2.      2.     0.4     0.0     0.0     0.0     0.0     0.0     0.0     0.0     0.1     0.1     0.0     0.1     0.0     0.1     0.4     0.4     0.4     0.4     0.6     0.5     2.4     0.0     0.0     0.0     0.1     0.1     0.1     0.1     0.1     0.1
   17 060   129    0.04    0.04    0.16    0.06    39.3   0.007   0.039   0.056   0.180     0.5     0.1     2.2     1.0     421    0.12    0.42    0.92    0.48     0.0     0.0     0.0     0.0     0.0     0.0     0.0     0.0     0.0     0.0    398.      1.      0.      1.      1.      1.      1.      1.      2.      2.     0.4     0.0     0.0     0.0     0.0     0.0     0.0     0.0     0.0     0.0     0.0     0.0     0.0     0.0     0.0     0.0     0.0     0.0     0.0     0.0     0.3     0.0     0.0     0.0     0.0     0.0     0.0     0.0     0.0     0.0
   17 061   130    0.04    0.04    0.16    0.06    39.6   0.007   0.040   0.057   0.180     0.4     0.1     1.6     1.0     339    0.12    0.34    0.92    0.32     0.0     0.0     0.0     0.0     0.0     0.0     0.0     0.0     0.0     0.0    318.      1.      0.      1.      1.      1.      1.      1.      1.      2.     0.3     0.0     0.0     0.0     0.0     0.0     0.0     0.0     0.0     0.0     0.0     0.0     0.0     0.0     0.0     0.0     0.0     0.0     0.0     0.0     0.2     0.0     0.0     0.0     0.0     0.0     0.0     0.0     0.0     0.0
   17 062   131    0.04    0.04    0.16    0.06    40.1   0.007   0.040   0.058   0.182     0.9     0.2     3.6     1.0     493    0.11    0.49    0.89    2.03     0.0     0.0     0.0     0.0     0.0     0.0     0.0     0.0     0.0     0.0    473.      1.      0.      1.      1.      1.      1.      1.      1.      2.     0.5     0.0     0.0     0.0     0.0     0.0     0.0     0.0     0.0     0.0     0.0     0.0     0.0     0.0     0.0     0.0     0.0     0.0     0.0     0.0     1.9     0.0     0.0     0.0     0.0     0.0     0.0     0.0     0.0     0.0
   17 063   132    0.04    0.04    0.17    0.07    40.5   0.007   0.041   0.059   0.184     0.8     0.2     3.3     1.0     428    0.11    0.43    0.89    1.84     0.0     0.0     0.0     0.0     0.0     0.0     0.0     0.0     0.0     0.0    409.      1.      0.      1.      1.      1.      1.      1.      1.      2.     0.4     0.0     0.0     0.0     0.0     0.0     0.0     0.0     0.0     0.0     0.0     0.0     0.0     0.0     0.0     0.0     0.0     0.0     0.0     0.0     1.7     0.0     0.0     0.0     0.0     0.0     0.0     0.0     0.0     0.0
   17 064   133    0.04    0.04    0.17    0.07    40.9   0.007   0.041   0.060   0.186     0.7     0.2     3.1     1.0     417    0.11    0.42    0.91    1.84     0.0     0.0     0.0     0.0     0.0     0.0     0.0     0.0     0.0     0.0    398.      1.      0.      1.      1.      1.      1.      1.      1.      1.     0.4     0.0     0.0     0.0     0.0     0.0     0.0     0.0     0.0     0.0     0.0     0.0     0.0     0.0     0.0     0.0     0.0     0.0     0.0     0.0     1.7     0.0     0.0     0.0     0.0     0.0     0.0     0.0     0.0     0.0
   17 065   134    0.04    0.04    0.17    0.07    41.3   0.007   0.041   0.060   0.188     0.7     0.2     2.7     1.0     353    0.11    0.35    0.90    1.53     0.0     0.0     0.0     0.0     0.0     0.0     0.0     0.0     0.0     0.0    334.      1.      0.      1.      1.      1.      1.      1.      1.      2.     0.3     0.0     0.0     0.0     0.0     0.0     0.0     0.0     0.0     0.0     0.0     0.0     0.0     0.0     0.0     0.0     0.0     0.0     0.0     0.0     1.4     0.0     0.0     0.0     0.0     0.0     0.0     0.0     0.0     0.0
   17 066   135    0.04    0.04    0.17    0.07    41.6   0.007   0.042   0.062   0.189     0.6     0.2     2.5     1.5     299    0.17    0.30    1.37    1.35     0.0     0.0     0.0     0.0     0.0     0.0     0.0     0.0     0.0     0.0    280.      0.      0.      1.      1.      1.      1.      1.      1.      2.     0.3     0.0     0.0     0.0     0.0     0.0     0.0     0.0     0.0     0.0     0.0     0.0     0.0     0.0     0.0     0.0     0.0     0.0     0.0     0.0     1.2     0.0     0.0     0.0     0.0     0.0     0.0     0.0     0.0     0.0
   17 067   136    0.04    0.04    0.18    0.07    41.8   0.007   0.042   0.063   0.190     0.6     0.2     2.2     1.5     247    0.17    0.25    1.36    1.13     0.0     0.0     0.0     0.0     0.0     0.0     0.0     0.0     0.0     0.0    226.      0.      0.      1.      1.      1.      1.      1.      1.      2.     0.2     0.0     0.0     0.0     0.0     0.0     0.0     0.0     0.0     0.0     0.0     0.0     0.0     0.0     0.0     0.0     0.0     0.0     0.0     0.0     1.0     0.0     0.0     0.0     0.0     0.0     0.0     0.0     0.0     0.0
   17 068   137    0.04    0.04    0.18    0.08    42.0   0.008   0.042   0.067   0.191     0.2     0.1     0.9     4.4     158    0.48    0.16    3.87    0.59     0.0     0.0     0.0     0.0     0.0     0.0     0.0     0.4     0.7     0.6    136.      0.      0.      1.      1.      1.      1.      1.      2.      2.     0.1     0.0     0.0     0.0     0.0     0.0     0.0     0.0     0.1     0.1     0.0     0.0     0.0     0.0     0.0     0.0     0.0     0.4     0.6     0.5     0.1     0.0     0.0     0.0     0.0     0.0     0.0     0.1     0.1     0.1
   17 069   138    0.04    0.04    0.18    0.09    42.1   0.009   0.042   0.078   0.192     0.2     0.1     0.6    11.5     120    1.06    0.12   10.48    1.21     0.0     0.0     0.0     3.2     1.7     1.3     0.9     0.6     0.6     0.6     98.      0.      0.      1.      1.      1.      1.      1.      2.      2.     0.1     0.0     0.0     0.2     0.1     0.1     0.1     0.1     0.1     0.1     0.0     0.0     0.0     3.0     1.6     1.2     0.8     0.6     0.6     0.5     0.1     0.0     0.0     0.2     0.1     0.2     0.1     0.1     0.1     0.1
[...]
   17 185   254    0.05    0.21    0.07    0.47    38.7   0.049   0.040   0.417   0.123     0.7     2.9     1.1     2.2     517    0.27    0.52    1.91    1.27     0.0     0.0     0.0     0.0     0.0     0.0     0.0     0.0     0.0     0.0      6.    158.     13.     21.     22.     20.     20.     20.     34.     35.     0.0     0.2     0.0     0.0     0.0     0.0     0.0     0.0     0.0     0.0     0.0     0.0     0.0     0.0     0.0     0.0     0.0     0.0     0.0     0.0     0.0     0.5     0.0     0.1     0.0     0.0     0.0     0.0     0.0     0.0
   17 186   255    0.05    0.22    0.07    0.47    39.2   0.050   0.040   0.418   0.124     0.7     2.8     1.1     2.2     522    0.27    0.52    1.90    1.29     0.0     0.0     0.0     0.0     0.0     0.0     0.0     0.0     0.0     0.0      6.    165.     13.     21.     22.     19.     20.     20.     34.     34.     0.0     0.2     0.0     0.0     0.0     0.0     0.0     0.0     0.0     0.0     0.0     0.0     0.0     0.0     0.0     0.0     0.0     0.0     0.0     0.0     0.0     0.6     0.0     0.0     0.0     0.0     0.0     0.0     0.0     0.0
   17 187   256    0.05    0.22    0.07    0.47    39.7   0.050   0.041   0.420   0.125     0.7     2.7     1.1     2.2     541    0.27    0.54    1.91    1.35     0.0     0.0     0.0     0.0     0.0     0.0     0.0     0.0     0.0     0.0      6.    177.     14.     22.     22.     20.     20.     20.     35.     35.     0.0     0.2     0.0     0.0     0.0     0.0     0.0     0.0     0.0     0.0     0.0     0.0     0.0     0.0     0.0     0.0     0.0     0.0     0.0     0.0     0.0     0.6     0.0     0.1     0.0     0.0     0.0     0.0     0.0     0.0
   17 188   257    0.05    0.22    0.08    0.47    40.3   0.050   0.041   0.422   0.127     0.7     2.7     1.1     2.2     582    0.28    0.58    1.94    1.46     0.0     0.0     0.0     0.0     0.0     0.0     0.0     0.0     0.0     0.0      7.    196.     15.     23.     24.     21.     21.     21.     37.     37.     0.0     0.2     0.0     0.0     0.0     0.0     0.0     0.0     0.0     0.0     0.0     0.0     0.0     0.0     0.0     0.0     0.0     0.0     0.0     0.0     0.0     0.7     0.0     0.1     0.0     0.0     0.0     0.0     0.0     0.0
   17 189   258    0.05    0.22    0.08    0.47    40.9   0.050   0.042   0.424   0.128     0.6     2.6     1.1     2.3     635    0.28    0.64    1.98    1.60     0.0     0.0     0.0     0.0     0.0     0.0     0.0     0.0     0.0     0.0      9.    220.     17.     25.     26.     23.     23.     23.     40.     40.     0.0     0.2     0.0     0.0     0.0     0.0     0.0     0.0     0.0     0.0     0.0     0.0     0.0     0.0     0.0     0.0     0.0     0.0     0.0     0.0     0.1     0.8     0.0     0.1     0.1     0.0     0.0     0.0     0.0     0.0
   17 190   259    0.05    0.23    0.08    0.48    41.6   0.051   0.043   0.426   0.130     0.7     2.6     1.2     2.3     683    0.29    0.68    2.00    1.72     0.0     0.0     0.0     0.0     0.0     0.0     0.0     0.0     0.0     0.0      8.    241.     18.     27.     28.     25.     25.     25.     43.     43.     0.0     0.2     0.0     0.0     0.0     0.0     0.0     0.0     0.0     0.0     0.0     0.0     0.0     0.0     0.0     0.0     0.0     0.0     0.0     0.0     0.1     0.8     0.1     0.1     0.1     0.0     0.0     0.0     0.0     0.0
   17 191   260    0.05    0.23    0.08    0.48    42.3   0.051   0.043   0.428   0.131     0.2     0.7     0.3     2.3     654    0.29    0.65    2.01    1.10     0.0     0.0     0.0     0.0     0.0     0.0     0.0     0.0     0.0     0.0      8.    195.     17.     29.     29.     26.     26.     26.     44.     45.     0.0     0.2     0.0     0.0     0.0     0.0     0.0     0.0     0.0     0.0     0.0     0.0     0.0     0.0     0.0     0.0     0.0     0.0     0.0     0.0     0.0     0.2     0.0     0.1     0.1     0.0     0.0     0.0     0.1     0.0
   17 192   261    0.05    0.23    0.08    0.48    43.0   0.051   0.044   0.430   0.132     0.4     1.6     0.8     2.3     687    0.29    0.69    2.00    1.01     0.0     0.0     0.0     0.0     0.0     0.0     0.0     0.0     0.0     0.0     19.    212.     14.     28.     29.     26.     26.     26.     45.     46.     0.0     0.2     0.0     0.0     0.0     0.0     0.0     0.0     0.0     0.0     0.0     0.0     0.0     0.0     0.0     0.0     0.0     0.0     0.0     0.0     0.0     0.2     0.0     0.1     0.1     0.0     0.0     0.0     0.1     0.0
   17 193   262    0.05    0.23    0.08    0.48    43.7   0.052   0.045   0.432   0.133     0.6     2.2     1.0     2.2     721    0.28    0.72    1.93    1.15     0.0     0.0     0.0     0.0     0.0     0.0     0.0     0.0     0.0     0.0     21.    255.     14.     28.     27.     24.     25.     25.     44.     45.     0.0     0.3     0.0     0.0     0.0     0.0     0.0     0.0     0.0     0.0     0.0     0.0     0.0     0.0     0.0     0.0     0.0     0.0     0.0     0.0     0.1     0.3     0.0     0.1     0.1     0.0     0.0     0.0     0.0     0.0
   17 194   263    0.05    0.23    0.08    0.49    44.4   0.052   0.045   0.434   0.134     0.6     2.1     1.0     2.1     736    0.27    0.74    1.85    1.27     0.0     0.0     0.0     0.0     0.0     0.0     0.0     0.0     0.0     0.0     20.    282.     16.     28.     26.     23.     24.     24.     42.     43.     0.0     0.3     0.0     0.0     0.0     0.0     0.0     0.0     0.0     0.0     0.0     0.0     0.0     0.0     0.0     0.0     0.0     0.0     0.0     0.0     0.1     0.4     0.0     0.1     0.1     0.0     0.0     0.0     0.0     0.0
   17 195   264    0.05    0.24    0.08    0.49    45.1   0.052   0.046   0.437   0.136     0.7     2.3     1.1     3.1     715    0.29    0.71    2.77    1.61     0.0     1.1     0.0     0.0     0.0     0.0     0.0     0.0     0.0     0.0     21.    289.     17.     27.     23.     21.     21.     22.     38.     40.     0.0     0.3     0.0     0.0     0.0     0.0     0.0     0.0     0.0     0.0     0.0     1.0     0.0     0.0     0.0     0.0     0.0     0.0     0.0     0.0     0.1     0.8     0.0     0.1     0.0     0.0     0.0     0.0     0.0     0.0
   17 196   265    0.05    0.24    0.08    0.49    45.8   0.052   0.047   0.440   0.138     0.6     2.1     1.0     3.6     659    0.29    0.66    3.36    1.52     0.0     0.9     0.9     0.0     0.0     0.0     0.0     0.0     0.0     0.0     17.    269.     15.     23.     22.     19.     20.     20.     35.     37.     0.0     0.3     0.0     0.0     0.0     0.0     0.0     0.0     0.0     0.0     0.0     0.8     0.9     0.0     0.0     0.0     0.0     0.0     0.0     0.0     0.1     0.8     0.0     0.0     0.0     0.0     0.0     0.0     0.0     0.0
   17 197   266    0.05    0.24    0.08    0.50    46.4   0.053   0.047   0.442   0.139     0.7     2.4     1.2     2.4     628    0.24    0.63    2.19    1.55     0.0     0.3     0.4     0.0     0.0     0.0     0.0     0.0     0.0     0.0     18.    255.     15.     25.     21.     18.     18.     18.     33.     35.     0.0     0.3     0.0     0.0     0.0     0.0     0.0     0.0     0.0     0.0     0.0     0.3     0.4     0.0     0.0     0.0     0.0     0.0     0.0     0.0     0.1     0.8     0.0     0.1     0.0     0.0     0.0     0.0     0.0     0.0
   17 198   267    0.05    0.24    0.09    0.50    47.0   0.053   0.048   0.444   0.141     0.8     2.6     1.3     1.8     609    0.22    0.61    1.56    1.55     0.0     0.0     0.1     0.0     0.0     0.0     0.0     0.0     0.0     0.0     19.    248.     15.     23.     21.     17.     17.     18.     31.     33.     0.0     0.2     0.0     0.0     0.0     0.0     0.0     0.0     0.0     0.0     0.0     0.0     0.1     0.0     0.0     0.0     0.0     0.0     0.0     0.0     0.1     0.8     0.0     0.1     0.0     0.0     0.0     0.0     0.0     0.0
   17 199   268    0.05    0.25    0.09    0.50    47.6   0.053   0.049   0.445   0.142     0.8     2.8     1.4     1.6     595    0.21    0.60    1.40    1.51     0.0     0.0     0.0     0.0     0.0     0.0     0.0     0.0     0.0     0.0     15.    243.     15.     23.     22.     16.     17.     17.     31.     33.     0.0     0.2     0.0     0.0     0.0     0.0     0.0     0.0     0.0     0.0     0.0     0.0     0.0     0.0     0.0     0.0     0.0     0.0     0.0     0.0     0.1     0.8     0.0     0.1     0.0     0.0     0.0     0.0     0.0     0.0
   17 200   269    0.06    0.25    0.09    0.50    48.3   0.053   0.049   0.447   0.144     0.9     2.9     1.5     1.6     632    0.21    0.63    1.40    1.59     0.0     0.0     0.0     0.0     0.0     0.0     0.0     0.0     0.0     0.0     14.    259.     15.     25.     24.     18.     18.     18.     32.     34.     0.0     0.3     0.0     0.0     0.0     0.0     0.0     0.0     0.0     0.0     0.0     0.0     0.0     0.0     0.0     0.0     0.0     0.0     0.0     0.0     0.1     0.9     0.0     0.1     0.0     0.0     0.0     0.0     0.0     0.0
   17 201   270    0.06    0.25    0.09    0.50    49.0   0.053   0.050   0.448   0.146     0.9     2.9     1.5     1.7     698    0.22    0.70    1.46    1.76     0.0     0.0     0.0     0.0     0.0     0.0     0.0     0.0     0.0     0.0     14.    292.     16.     28.     27.     20.     20.     20.     36.     37.     0.0     0.3     0.0     0.0     0.0     0.0     0.0     0.0     0.0     0.0     0.0     0.0     0.0     0.0     0.0     0.0     0.0     0.0     0.0     0.0     0.1     1.0     0.0     0.1     0.1     0.0     0.0     0.0     0.0     0.0
   17 202   271    0.06    0.25    0.09    0.50    49.7   0.054   0.051   0.450   0.147     0.9     2.9     1.5     1.7     749    0.22    0.75    1.51    1.89     0.0     0.0     0.0     0.0     0.0     0.0     0.0     0.0     0.0     0.0     16.    316.     18.     30.     30.     21.     21.     21.     38.     40.     0.0     0.3     0.0     0.0     0.0     0.0     0.0     0.0     0.0     0.0     0.0     0.0     0.0     0.0     0.0     0.0     0.0     0.0     0.0     0.0     0.1     1.1     0.1     0.1     0.1     0.0     0.0     0.0     0.0     0.0
   17 203   272    0.06    0.26    0.09    0.51    50.5   0.054   0.051   0.451   0.149     0.9     2.9     1.6     1.8     793    0.23    0.79    1.54    2.00     0.0     0.0     0.0     0.0     0.0     0.0     0.0     0.0     0.0     0.0     15.    336.     19.     33.     32.     23.     22.     23.     40.     42.     0.0     0.3     0.0     0.0     0.0     0.0     0.0     0.0     0.0     0.0     0.0     0.0     0.0     0.0     0.0     0.0     0.0     0.0     0.0     0.0     0.1     1.1     0.1     0.1     0.1     0.0     0.0     0.0     0.0     0.0
   17 204   273    0.06    0.26    0.10    0.51    51.3   0.054   0.052   0.453   0.152     0.9     2.8     1.6     1.8     831    0.23    0.83    1.57    2.10     0.0     0.0     0.0     0.0     0.0     0.0     0.0     0.0     0.0     0.0     18.    351.     20.     35.     34.     24.     23.     24.     42.     44.     0.0     0.4     0.0     0.0     0.0     0.0     0.0     0.0     0.0     0.0     0.0     0.0     0.0     0.0     0.0     0.0     0.0     0.0     0.0     0.0     0.1     1.2     0.1     0.1     0.1     0.0     0.0     0.0     0.0     0.0
   17 205   274    0.06    0.26    0.10    0.51    52.1   0.054   0.053   0.454   0.154     0.9     2.8     1.6     1.8     812    0.23    0.81    1.56    2.05     0.0     0.0     0.0     0.0     0.0     0.0     0.0     0.0     0.0     0.0     17.    338.     20.     35.     34.     23.     23.     23.     41.     43.     0.0     0.3     0.0     0.0     0.0     0.0     0.0     0.0     0.0     0.0     0.0     0.0     0.0     0.0     0.0     0.0     0.0     0.0     0.0     0.0     0.1     1.1     0.1     0.1     0.1     0.0     0.0     0.0     0.0     0.0
   17 206   275    0.06    0.27    0.10    0.51    52.9   0.055   0.054   0.456   0.155     0.8     2.5     1.5     1.7     740    0.22    0.74    1.49    1.86     0.0     0.0     0.0     0.0     0.0     0.0     0.0     0.0     0.0     0.0     24.    298.     18.     32.     31.     21.     20.     21.     37.     40.     0.0     0.3     0.0     0.0     0.0     0.0     0.0     0.0     0.0     0.0     0.0     0.0     0.0     0.0     0.0     0.0     0.0     0.0     0.0     0.0     0.1     1.0     0.1     0.1     0.1     0.0     0.0     0.0     0.0     0.0
   17 207   276    0.06    0.27    0.10    0.51    53.5   0.055   0.054   0.457   0.156     0.4     1.3     0.8     1.7     591    0.22    0.59    1.44    0.82     0.0     0.0     0.0     0.0     0.0     0.0     0.0     0.0     0.0     0.0     20.    185.     12.     29.     28.     19.     19.     19.     34.     37.     0.0     0.2     0.0     0.0     0.0     0.0     0.0     0.0     0.0     0.0     0.0     0.0     0.0     0.0     0.0     0.0     0.0     0.0     0.0     0.0     0.0     0.1     0.0     0.1     0.1     0.0     0.0     0.0     0.0     0.0
   17 208   277    0.06    0.27    0.10    0.51    54.0   0.055   0.055   0.459   0.157     0.3     0.9     0.6     1.6     495    0.21    0.50    1.39    0.61     0.0     0.0     0.0     0.0     0.0     0.0     0.0     0.0     0.0     0.0     19.    143.      9.     13.     18.     17.     17.     17.     31.     34.     0.0     0.1     0.0     0.0     0.0     0.0     0.0     0.0     0.0     0.0     0.0     0.0     0.0     0.0     0.0     0.0     0.0     0.0     0.0     0.0     0.0     0.1     0.0     0.0     0.0     0.0     0.0     0.0     0.0     0.0
   17 209   278    0.06    0.27    0.10    0.52    54.5   0.055   0.055   0.460   0.157     0.4     1.2     0.8     1.5     495    0.20    0.50    1.34    0.61     0.0     0.0     0.0     0.0     0.0     0.0     0.0     0.0     0.0     0.0     25.    161.      8.     14.     15.     14.     15.     16.     29.     32.     0.0     0.2     0.0     0.0     0.0     0.0     0.0     0.0     0.0     0.0     0.0     0.0     0.0     0.0     0.0     0.0     0.0     0.0     0.0     0.0     0.0     0.1     0.0     0.0     0.0     0.0     0.0     0.0     0.0     0.0
   17 210   279    0.06    0.27    0.10    0.52    55.0   0.055   0.056   0.461   0.158     0.8     2.2     1.4     1.5     572    0.20    0.57    1.32    0.92     0.0     0.0     0.0     0.0     0.0     0.0     0.0     0.0     0.0     0.0     39.    216.     12.     21.     20.     17.     12.     15.     28.     31.     0.0     0.2     0.0     0.0     0.0     0.0     0.0     0.0     0.0     0.0     0.0     0.0     0.0     0.0     0.0     0.0     0.0     0.0     0.0     0.0     0.2     0.2     0.0     0.0     0.0     0.0     0.0     0.0     0.0     0.0
   17 211   280    0.06    0.27    0.10    0.52    55.7   0.056   0.057   0.465   0.160     0.8     2.4     1.5     4.1     660    0.30    0.66    3.82    1.55     0.0     1.5     1.1     0.0     0.0     0.0     0.0     0.0     0.0     0.0     39.    275.     16.     26.     24.     17.     17.     14.     30.     33.     0.0     0.3     0.1     0.0     0.0     0.0     0.0     0.0     0.0     0.0     0.0     1.4     1.1     0.0     0.0     0.0     0.0     0.0     0.0     0.0     0.2     0.7     0.1     0.0     0.0     0.0     0.0     0.0     0.0     0.0
   17 212   281    0.06    0.28    0.10    0.53    56.5   0.056   0.057   0.469   0.162     0.8     2.4     1.5     4.3     791    0.29    0.79    4.03    2.15     0.0     0.0     0.9     0.9     0.8     0.0     0.0     0.0     0.0     0.0     51.    349.     19.     31.     28.     20.     18.     21.     34.     37.     0.1     0.3     0.1     0.1     0.0     0.0     0.0     0.0     0.0     0.0     0.0     0.0     0.9     0.9     0.8     0.0     0.0     0.0     0.0     0.0     0.2     1.2     0.1     0.1     0.1     0.0     0.0     0.0     0.0     0.0
   17 213   282    0.07    0.28    0.11    0.53    57.4   0.056   0.058   0.472   0.165     0.9     2.6     1.7     3.0     930    0.26    0.93    2.71    2.50     0.0     0.0     0.4     0.5     0.4     0.0     0.0     0.0     0.0     0.0     52.    420.     24.     39.     35.     26.     23.     26.     39.     42.     0.1     0.4     0.0     0.1     0.0     0.0     0.0     0.0     0.0     0.0     0.0     0.0     0.3     0.5     0.4     0.0     0.0     0.0     0.0     0.0     0.3     1.4     0.1     0.1     0.1     0.0     0.0     0.0     0.0     0.0
   17 214   283    0.07    0.28    0.11    0.53    58.5   0.057   0.059   0.474   0.167     0.9     2.4     1.6     2.7    1090    0.26    1.09    2.48    2.86     0.0     0.0     0.2     0.4     0.4     0.0     0.0     0.0     0.0     0.0     69.    493.     28.     46.     42.     31.     28.     32.     46.     48.     0.1     0.5     0.0     0.1     0.1     0.0     0.0     0.0     0.0     0.0     0.0     0.0     0.2     0.4     0.4     0.0     0.0     0.0     0.0     0.0     0.3     1.6     0.1     0.1     0.1     0.0     0.0     0.0     0.1     0.0
   17 215   284    0.07    0.28    0.11    0.53    59.8   0.057   0.061   0.477   0.171     0.9     2.6     1.8     2.5    1241    0.26    1.24    2.27    3.34     0.0     0.0     0.1     0.2     0.2     0.2     0.0     0.0     0.0     0.0    103.    551.     30.     52.     48.     37.     33.     36.     52.     52.     0.1     0.6     0.0     0.1     0.1     0.0     0.0     0.0     0.1     0.1     0.0     0.0     0.1     0.2     0.2     0.2     0.0     0.0     0.0     0.0     0.5     1.8     0.1     0.1     0.1     0.1     0.0     0.0     0.1     0.1
   17 216   285    0.07    0.29    0.11    0.54    61.1   0.057   0.062   0.480   0.174     1.0     2.5     1.9     3.2    1306    0.28    1.31    2.89    3.45     0.0     0.0     0.4     0.3     0.3     0.2     0.2     0.0     0.0     0.0    107.    577.     31.     54.     51.     40.     37.     39.     57.     55.     0.1     0.6     0.0     0.1     0.1     0.0     0.0     0.0     0.1     0.1     0.0     0.0     0.4     0.3     0.2     0.2     0.2     0.0     0.0     0.0     0.5     1.9     0.1     0.1     0.1     0.1     0.1     0.1     0.1     0.1
   17 217   286    0.07    0.29    0.11    0.54    62.4   0.057   0.063   0.482   0.178     1.0     2.7     2.1     2.9    1347    0.27    1.35    2.64    3.64     0.0     0.0     0.1     0.3     0.3     0.2     0.2     0.0     0.0     0.0    131.    583.     32.     54.     52.     41.     39.     40.     59.     56.     0.1     0.6     0.0     0.1     0.1     0.0     0.0     0.0     0.1     0.1     0.0     0.0     0.1     0.3     0.3     0.2     0.2     0.0     0.0     0.0     0.6     1.9     0.1     0.1     0.1     0.1     0.1     0.1     0.1     0.1
   17 218   287    0.07    0.29    0.12    0.54    63.7   0.058   0.065   0.485   0.182     1.1     2.8     2.4     2.8    1339    0.27    1.34    2.50    3.63     0.0     0.0     0.0     0.3     0.3     0.2     0.2     0.0     0.0     0.0    117.    579.     33.     54.     52.     42.     40.     41.     60.     56.     0.1     0.6     0.0     0.1     0.1     0.0     0.0     0.0     0.1     0.1     0.0     0.0     0.0     0.3     0.3     0.2     0.2     0.0     0.0     0.0     0.6     1.9     0.1     0.1     0.1     0.1     0.1     0.1     0.1     0.1
   17 219   288    0.07    0.29    0.12    0.54    64.9   0.058   0.066   0.487   0.185     1.2     2.9     2.5     2.6    1162    0.25    1.16    2.32    3.10     0.0     0.0     0.0     0.3     0.3     0.2     0.2     0.0     0.0     0.0     81.    496.     28.     48.     46.     38.     37.     37.     55.     51.     0.1     0.5     0.0     0.1     0.1     0.0     0.0     0.0     0.1     0.1     0.0     0.0     0.0     0.3     0.3     0.2     0.1     0.0     0.0     0.0     0.4     1.6     0.1     0.1     0.1     0.1     0.1     0.0     0.1     0.1
