*PLANT N OUTPUT FILE

*DSSAT Cropping System Model Ver. 4.8.5.000 -release  MAR 01, 2026 09:34:40

*RUN   1        : 1                         WHAPS048 TUDU1701    1
 MODEL          : WHAPS048 - Wheat
 EXPERIMENT     : TUDU1701 WH
 DATA PATH      :
 TREATMENT  1   : 1                         WHAPS048
  
@YEAR DOY   DAS   DAP   CNAD   GNAD   GN%D   VN%D   NUPC   LNAD   SNAD   LN%D   SN%D   RN%D   SNN0C   SNN1C NFact1 NFact2 NFact3 NFact4  RootN lfshthN
   16 298     1     0    0.0    0.0   0.00   0.00    0.0    0.0    0.0    0.0   0.00   0.00    0.00    0.00   0.00   0.00   0.00   0.00   0.00   0.00
   16 299     2     1    0.0    0.0   0.00   0.00    0.0    0.0    0.0    0.0   0.00   0.00    0.00    0.00   0.00   0.00   0.00   0.00   0.00   0.00
   16 300     3     2    0.0    0.0   0.00   0.00    0.0    0.0    0.0    0.0   0.00   0.00    0.00    0.00   0.00   0.00   0.00   0.00   0.00   0.00
   16 301     4     3    0.0    0.0   0.00   0.00    0.0    0.0    0.0    0.0   0.00   0.00    0.00    0.00   0.00   0.00   0.00   0.00   0.00   0.00
   16 302     5     4    0.0    0.0   0.00   0.00    0.0    0.0    0.0    0.0   0.00   0.00    0.00    0.00   0.00   0.00   0.00   0.00   0.00   0.00
   16 303     6     5    0.0    0.0   0.00   0.00    0.0    0.0    0.0    0.0   0.00   0.00    0.00    0.00   0.00   0.00   0.00   0.00   0.00   0.00
   16 304     7     6    0.0    0.0   0.00   0.00    0.0    0.0    0.0    0.0   0.00   0.00    0.00    0.00   0.00   0.00   0.00   0.00   0.00   0.00
   16 305     8     7    0.0    0.0   0.00   0.00    0.0    0.0    0.0    0.0   0.00   0.00    0.00    0.00   0.00   0.00   0.00   0.00   0.00   0.00
   16 306     9     8    0.0    0.0   0.00   0.00    0.0    0.0    0.0    0.0   0.00   0.00    0.00    0.00   0.00   0.00   0.00   0.00   0.00   0.00
   16 307    10     9    0.0    0.0   0.00   0.00    0.0    0.0    0.0    0.0   0.00   0.00    0.00    0.00   0.00   0.00   0.00   0.00   0.00   0.00
   16 308    11    10    0.0    0.0   0.00   0.00    0.0    0.0    0.0    0.0   0.00   0.00    0.00    0.00   0.00   0.00   0.00   0.00   0.00   0.00
   16 309    12    11    0.0    0.0   0.00   0.00    0.0    0.0    0.0    0.0   0.00   0.00    0.00    0.00   0.00   0.00   0.00   0.00   0.00   0.00
   16 310    13    12    0.0    0.0   0.00   0.00    0.0    0.0    0.0    0.0   0.00   0.00    0.00    0.00   0.00   0.00   0.00   0.00   0.00   0.00
   16 311    14    13    1.0    0.0   0.00   9.97    0.2    0.6    0.0    6.0   6.34   4.48    0.00    0.00   0.00   0.00   0.00   0.00   1.07   0.41
   16 312    15    14    1.1    0.0   0.00  10.14    0.2    0.6    0.0    6.3   6.34   4.45    0.00    0.00   0.00   0.00   0.00   0.00   1.06   0.41
   16 313    16    15    1.1    0.0   0.00   9.91    0.2    0.6    0.0    6.2   6.34   4.41    0.00    0.00   0.00   0.00   0.00   0.00   1.05   0.41
   16 314    17    16    1.1    0.0   0.00   9.46    0.2    0.6    0.0    6.1   6.34   4.36    0.00    0.00   0.00   0.00   0.00   0.00   1.04   0.41
   16 315    18    17    1.1    0.0   0.00   8.57    0.2    0.7    0.0    5.7   6.34   4.32    0.00    0.00   0.00   0.00   0.00   0.00   1.03   0.41
   16 316    19    18    1.2    0.0   0.00   8.58    0.3    0.7    0.0    6.0   6.34   4.29    0.00    0.00   0.00   0.00   0.00   0.00   1.02   0.41
   16 317    20    19    1.2    0.0   0.00   8.75    0.4    0.8    0.0    6.3   6.34   4.26    0.00    0.00   0.00   0.00   0.00   0.00   1.01   0.41
   16 318    21    20    1.2    0.0   0.00   8.80    0.4    0.8    0.0    6.3   6.34   4.26    0.00    0.00   0.00   0.00   0.00   0.00   1.00   0.41
   16 319    22    21    1.2    0.0   0.00   8.80    0.4    0.8    0.0    6.3   6.34   4.26    0.00    0.00   0.00   0.00   0.00   0.00   0.99   0.41
   16 320    23    22    1.2    0.0   0.00   8.40    0.4    0.8    0.0    6.1   6.34   4.22    0.00    0.00   0.00   0.00   0.00   0.00   0.98   0.41
   16 321    24    23    1.2    0.0   0.00   6.60    0.4    0.8    0.0    4.8   6.34   4.19    0.00    0.00   0.00   0.00   0.00   0.00   0.97   0.41
   16 322    25    24    1.4    0.0   0.00   5.55    0.5    0.9    0.0    4.1   6.34   4.13    0.00    0.00   0.00   0.00   0.00   0.00   0.96   0.41
   16 323    26    25    1.4    0.0   0.00   4.52    0.6    1.0    0.0    3.4   6.34   4.09    0.00    0.00   0.00   0.00   0.00   0.00   0.95   0.41
   16 324    27    26    1.4    0.0   0.00   4.39    0.6    1.0    0.0    3.3   6.34   4.07    0.00    0.00   0.00   0.00   0.00   0.00   0.94   0.41
   16 325    28    27    1.5    0.0   0.00   4.14    0.6    1.1    0.0    3.2   6.34   3.98    0.00    0.00   0.00   0.00   0.00   0.00   0.93   0.41
   16 326    29    28    1.5    0.0   0.00   3.43    0.7    1.1    0.0    2.7   6.34   3.89    0.00    0.00   0.00   0.00   0.00   0.00   0.92   0.41
   16 327    30    29    1.6    0.0   0.00   2.96    0.7    1.1    0.0    2.3   6.34   3.82    0.00    0.00   0.00   0.00   0.00   0.00   0.91   0.41
   16 328    31    30    1.6    0.0   0.00   2.74    0.8    1.2    0.0    2.2   6.34   3.74    0.00    0.00   0.00   0.00   0.00   0.00   0.90   0.41
   16 329    32    31    1.7    0.0   0.00   2.60    0.8    1.2    0.0    2.1   6.34   3.70    0.00    0.00   0.00   0.00   0.00   0.00   0.89   0.41
   16 330    33    32    1.7    0.0   0.00   2.50    0.9    1.3    0.0    2.0   6.34   3.65    0.00    0.00   0.00   0.00   0.00   0.00   0.88   0.41
   16 331    34    33    1.7    0.0   0.00   2.53    0.9    1.3    0.0    2.1   6.34   3.62    0.00    0.00   0.00   0.00   0.00   0.00   0.87   0.41
   16 332    35    34    1.8    0.0   0.00   2.54    0.9    1.3    0.0    2.1   6.34   3.56    0.00    0.00   0.00   0.00   0.00   0.00   0.87   0.41
   16 333    36    35    1.8    0.0   0.00   2.58    0.9    1.4    0.0    2.1   6.34   3.56    0.00    0.00   0.00   0.00   0.00   0.00   0.86   0.41
   16 334    37    36    1.8    0.0   0.00   2.61    1.0    1.4    0.0    2.2   6.34   3.56    0.00    0.00   0.00   0.00   0.00   0.00   0.85   0.41
   16 335    38    37    1.8    0.0   0.00   2.64    1.0    1.4    0.0    2.2   6.34   3.56    0.00    0.00   0.00   0.00   0.00   0.00   0.84   0.41
   16 336    39    38    1.9    0.0   0.00   2.64    1.0    1.4    0.0    2.2   6.34   3.51    0.00    0.00   0.00   0.00   0.00   0.00   0.83   0.41
   16 337    40    39    1.9    0.0   0.00   2.65    1.0    1.4    0.0    2.3   6.34   3.47    0.00    0.00   0.00   0.00   0.00   0.00   0.82   0.41
   16 338    41    40    1.9    0.0   0.00   2.67    1.1    1.5    0.0    2.3   6.34   3.47    0.00    0.00   0.00   0.00   0.00   0.00   0.82   0.41
   16 339    42    41    1.9    0.0   0.00   2.70    1.1    1.5    0.0    2.3   6.34   3.47    0.00    0.00   0.00   0.00   0.00   0.00   0.81   0.41
   16 340    43    42    1.9    0.0   0.00   2.72    1.1    1.5    0.0    2.3   6.34   3.47    0.00    0.00   0.00   0.00   0.00   0.00   0.80   0.41
   16 341    44    43    1.9    0.0   0.00   2.74    1.1    1.5    0.0    2.4   6.34   3.47    0.00    0.00   0.00   0.00   0.00   0.00   0.79   0.41
   16 342    45    44    2.0    0.0   0.00   2.76    1.1    1.5    0.0    2.4   6.34   3.47    0.00    0.00   0.00   0.00   0.00   0.00   0.78   0.41
   16 343    46    45    2.0    0.0   0.00   2.78    1.1    1.5    0.0    2.4   6.34   3.47    0.00    0.00   0.00   0.00   0.00   0.00   0.78   0.41
   16 344    47    46    2.0    0.0   0.00   2.78    1.1    1.5    0.0    2.4   6.34   3.45    0.00    0.00   0.00   0.00   0.00   0.00   0.77   0.41
   16 345    48    47    2.0    0.0   0.00   2.73    1.2    1.6    0.0    2.4   6.34   3.34    0.00    0.00   0.00   0.00   0.00   0.00   0.76   0.41
   16 346    49    48    2.0    0.0   0.00   2.73    1.2    1.6    0.0    2.4   6.34   3.31    0.00    0.00   0.00   0.00   0.00   0.00   0.75   0.41
   16 347    50    49    2.0    0.0   0.00   2.73    1.2    1.6    0.0    2.4   6.34   3.27    0.00    0.00   0.00   0.00   0.00   0.00   0.74   0.42
   16 348    51    50    2.0    0.0   0.00   2.71    1.2    1.6    0.0    2.4   6.34   3.18    0.00    0.00   0.00   0.00   0.00   0.00   0.74   0.42
   16 349    52    51    2.0    0.0   0.00   2.68    1.2    1.6    0.0    2.4   6.34   3.10    0.00    0.00   0.00   0.00   0.00   0.00   0.73   0.42
   16 350    53    52    2.1    0.0   0.00   2.68    1.2    1.6    0.0    2.4   6.34   3.07    0.00    0.00   0.00   0.00   0.00   0.00   0.72   0.42
   16 351    54    53    2.1    0.0   0.00   2.69    1.2    1.6    0.0    2.4   6.34   3.07    0.00    0.00   0.00   0.00   0.00   0.00   0.72   0.42
   16 352    55    54    2.1    0.0   0.00   2.71    1.2    1.6    0.0    2.5   6.34   3.07    0.00    0.00   0.00   0.00   0.00   0.00   0.71   0.42
   16 353    56    55    2.1    0.0   0.00   2.72    1.2    1.7    0.0    2.5   6.34   3.07    0.00    0.00   0.00   0.00   0.00   0.00   0.70   0.42
   16 354    57    56    2.1    0.0   0.00   2.74    1.3    1.7    0.0    2.5   6.34   3.07    0.00    0.00   0.00   0.00   0.00   0.00   0.69   0.42
   16 355    58    57    2.1    0.0   0.00   2.75    1.3    1.7    0.0    2.5   6.34   3.07    0.00    0.00   0.00   0.00   0.00   0.00   0.69   0.42
   16 356    59    58    2.1    0.0   0.00   2.77    1.3    1.7    0.0    2.5   6.34   3.07    0.00    0.00   0.00   0.00   0.00   0.00   0.68   0.42
   16 357    60    59    2.1    0.0   0.00   2.78    1.3    1.7    0.0    2.5   6.34   3.07    0.00    0.00   0.00   0.00   0.00   0.00   0.67   0.42
   16 358    61    60    2.2    0.0   0.00   2.79    1.3    1.7    0.0    2.5   6.34   3.07    0.00    0.00   0.00   0.00   0.00   0.00   0.67   0.42
   16 359    62    61    2.2    0.0   0.00   2.78    1.3    1.7    0.0    2.5   6.34   3.03    0.00    0.00   0.00   0.00   0.00   0.00   0.66   0.42
   16 360    63    62    2.2    0.0   0.00   2.75    1.3    1.7    0.0    2.5   6.34   2.96    0.00    0.00   0.00   0.00   0.00   0.00   0.65   0.42
   16 361    64    63    2.2    0.0   0.00   2.71    1.3    1.7    0.0    2.5   6.34   2.88    0.00    0.00   0.00   0.00   0.00   0.00   0.65   0.43
   16 362    65    64    2.2    0.0   0.00   2.69    1.3    1.7    0.0    2.5   6.34   2.82    0.00    0.00   0.00   0.00   0.00   0.00   0.64   0.43
   16 363    66    65    2.2    0.0   0.00   2.68    1.3    1.8    0.0    2.5   6.34   2.77    0.00    0.00   0.00   0.00   0.00   0.00   0.63   0.43
   16 364    67    66    2.2    0.0   0.00   2.70    1.3    1.8    0.0    2.5   6.34   2.76    0.00    0.00   0.00   0.00   0.00   0.00   0.63   0.43
   16 365    68    67    2.2    0.0   0.00   2.71    1.4    1.8    0.0    2.6   6.34   2.76    0.00    0.00   0.00   0.00   0.00   0.00   0.62   0.43
   16 366    69    68    2.2    0.0   0.00   2.73    1.4    1.8    0.0    2.6   6.34   2.76    0.00    0.00   0.00   0.00   0.00   0.00   0.62   0.43
   17 001    70    69    2.3    0.0   0.00   2.75    1.4    1.8    0.0    2.6   6.34   2.76    0.00    0.00   0.00   0.00   0.00   0.00   0.61   0.44
   17 002    71    70    2.3    0.0   0.00   2.76    1.4    1.8    0.0    2.6   6.34   2.76    0.00    0.00   0.00   0.00   0.00   0.00   0.60   0.44
   17 003    72    71    2.3    0.0   0.00   2.78    1.4    1.8    0.0    2.6   6.34   2.76    0.00    0.00   0.00   0.00   0.00   0.00   0.60   0.44
   17 004    73    72    2.3    0.0   0.00   2.80    1.4    1.8    0.0    2.6   6.34   2.76    0.00    0.00   0.00   0.00   0.00   0.00   0.59   0.44
   17 005    74    73    2.3    0.0   0.00   2.81    1.4    1.8    0.0    2.7   6.34   2.76    0.00    0.00   0.00   0.00   0.00   0.00   0.59   0.44
   17 006    75    74    2.3    0.0   0.00   2.83    1.4    1.9    0.0    2.7   6.34   2.76    0.00    0.00   0.00   0.00   0.00   0.00   0.58   0.44
   17 007    76    75    2.3    0.0   0.00   2.84    1.4    1.9    0.0    2.7   6.34   2.76    0.00    0.00   0.00   0.00   0.00   0.00   0.57   0.44
   17 008    77    76    2.4    0.0   0.00   2.85    1.4    1.9    0.0    2.7   6.34   2.76    0.00    0.00   0.00   0.00   0.00   0.00   0.57   0.45
   17 009    78    77    2.4    0.0   0.00   2.87    1.4    1.9    0.0    2.7   6.34   2.76    0.00    0.00   0.00   0.00   0.00   0.00   0.56   0.45
   17 010    79    78    2.4    0.0   0.00   2.88    1.4    1.9    0.0    2.7   6.34   2.76    0.00    0.00   0.00   0.00   0.00   0.00   0.56   0.45
   17 011    80    79    2.4    0.0   0.00   2.90    1.4    1.9    0.0    2.7   6.34   2.76    0.00    0.00   0.00   0.00   0.00   0.00   0.55   0.45
   17 012    81    80    2.4    0.0   0.00   2.88    1.4    1.9    0.0    2.7   6.34   2.71    0.00    0.00   0.00   0.00   0.00   0.00   0.55   0.45
   17 013    82    81    2.4    0.0   0.00   2.87    1.4    1.9    0.0    2.7   6.34   2.67    0.00    0.00   0.00   0.00   0.00   0.00   0.54   0.45
   17 014    83    82    2.4    0.0   0.00   2.88    1.4    1.9    0.0    2.8   6.34   2.67    0.00    0.00   0.00   0.00   0.00   0.00   0.53   0.45
   17 015    84    83    2.4    0.0   0.00   2.89    1.5    1.9    0.0    2.8   6.34   2.67    0.00    0.00   0.00   0.00   0.00   0.00   0.53   0.46
   17 016    85    84    2.4    0.0   0.00   2.91    1.5    2.0    0.0    2.8   6.34   2.67    0.00    0.00   0.00   0.00   0.00   0.00   0.52   0.46
   17 017    86    85    2.5    0.0   0.00   2.92    1.5    2.0    0.0    2.8   6.34   2.67    0.00    0.00   0.00   0.00   0.00   0.00   0.52   0.46
   17 018    87    86    2.5    0.0   0.00   2.93    1.5    2.0    0.0    2.8   6.34   2.67    0.00    0.00   0.00   0.00   0.00   0.00   0.51   0.46
   17 019    88    87    2.5    0.0   0.00   2.94    1.5    2.0    0.0    2.8   6.34   2.67    0.00    0.00   0.00   0.00   0.00   0.00   0.51   0.46
   17 020    89    88    2.5    0.0   0.00   2.96    1.5    2.0    0.0    2.8   6.34   2.67    0.00    0.00   0.00   0.00   0.00   0.00   0.50   0.46
   17 021    90    89    2.5    0.0   0.00   2.97    1.5    2.0    0.0    2.8   6.34   2.67    0.00    0.00   0.00   0.00   0.00   0.00   0.50   0.46
   17 022    91    90    2.5    0.0   0.00   2.98    1.5    2.0    0.0    2.9   6.34   2.67    0.00    0.00   0.00   0.00   0.00   0.00   0.49   0.46
   17 023    92    91    2.5    0.0   0.00   2.99    1.5    2.0    0.0    2.9   6.34   2.67    0.00    0.00   0.00   0.00   0.00   0.00   0.49   0.47
   17 024    93    92    2.5    0.0   0.00   3.00    1.6    2.0    0.0    2.9   6.34   2.67    0.00    0.00   0.00   0.00   0.00   0.00   0.48   0.47
   17 025    94    93    2.5    0.0   0.00   3.01    1.6    2.0    0.0    2.9   6.34   2.67    0.00    0.00   0.00   0.00   0.00   0.00   0.48   0.47
   17 026    95    94    2.5    0.0   0.00   3.02    1.6    2.0    0.0    2.9   6.34   2.67    0.00    0.00   0.00   0.00   0.00   0.00   0.47   0.47
   17 027    96    95    2.5    0.0   0.00   3.04    1.6    2.1    0.0    2.9   6.34   2.67    0.00    0.00   0.00   0.00   0.00   0.00   0.47   0.47
   17 028    97    96    2.6    0.0   0.00   3.05    1.6    2.1    0.0    2.9   6.34   2.67    0.00    0.00   0.00   0.00   0.00   0.00   0.46   0.47
   17 029    98    97    2.6    0.0   0.00   3.06    1.6    2.1    0.0    2.9   6.34   2.67    0.00    0.00   0.00   0.00   0.00   0.00   0.46   0.47
   17 030    99    98    2.6    0.0   0.00   3.07    1.6    2.1    0.0    2.9   6.34   2.67    0.00    0.00   0.00   0.00   0.00   0.00   0.46   0.47
   17 031   100    99    2.6    0.0   0.00   3.01    1.6    2.1    0.0    2.9   6.34   2.55    0.00    0.00   0.00   0.00   0.00   0.00   0.45   0.47
   17 032   101   100    2.6    0.0   0.00   2.98    1.6    2.1    0.0    2.9   6.34   2.49    0.00    0.00   0.00   0.00   0.00   0.00   0.45   0.48
   17 033   102   101    2.6    0.0   0.00   2.92    1.6    2.1    0.0    2.9   6.34   2.37    0.00    0.00   0.00   0.00   0.00   0.00   0.44   0.48
   17 034   103   102    2.6    0.0   0.00   2.91    1.6    2.1    0.0    2.9   6.34   2.28    0.00    0.00   0.00   0.00   0.00   0.00   0.44   0.48
   17 035   104   103    4.5    0.0   0.00   4.82    3.5    3.6    0.0    4.9   6.34   2.13    0.00    0.00   0.00   0.00   0.00   0.00   0.43   0.80
   17 036   105   104    5.8    0.0   0.00   5.97    4.8    4.7    0.0    6.1   6.34   2.05    0.00    0.00   0.00   0.00   0.00   0.00   0.45   1.09
   17 037   106   105    6.0    0.0   0.00   6.11    5.1    4.8    0.0    6.2   6.34   2.04    0.00    0.00   0.00   0.00   0.00   0.00   0.46   1.22
   17 038   107   106    6.1    0.0   0.00   6.01    5.2    4.8    0.0    6.1   6.34   2.06    0.00    0.00   0.00   0.00   0.00   0.00   0.49   1.27
   17 039   108   107    6.3    0.0   0.00   6.22    5.4    4.9    0.0    6.2   6.34   2.06    0.00    0.00   0.00   0.00   0.00   0.00   0.48   1.37
   17 040   109   108    6.3    0.0   0.00   6.22    5.4    4.9    0.0    6.2   6.34   2.06    0.00    0.00   0.00   0.00   0.00   0.00   0.48   1.37
   17 041   110   109    6.3    0.0   0.00   6.22    5.4    4.9    0.0    6.2   6.34   2.06    0.00    0.00   0.00   0.00   0.00   0.00   0.47   1.37
   17 042   111   110    6.3    0.0   0.00   6.22    5.4    4.9    0.0    6.2   6.34   2.06    0.00    0.00   0.00   0.00   0.00   0.00   0.47   1.37
   17 043   112   111    6.3    0.0   0.00   6.22    5.4    4.9    0.0    6.2   6.34   2.06    0.00    0.00   0.00   0.00   0.00   0.00   0.46   1.37
   17 044   113   112    6.3    0.0   0.00   6.09    5.5    4.9    0.0    6.1   6.34   2.11    0.00    0.00   0.00   0.00   0.00   0.00   0.50   1.37
   17 045   114   113    6.4    0.0   0.00   6.10    5.5    4.9    0.0    6.1   6.34   2.14    0.00    0.00   0.00   0.00   0.00   0.00   0.50   1.39
   17 046   115   114    6.4    0.0   0.00   6.10    5.5    4.9    0.0    6.1   6.34   2.17    0.00    0.00   0.00   0.00   0.00   0.00   0.50   1.40
   17 047   116   115    6.4    0.0   0.00   5.69    5.6    5.0    0.0    5.9   6.34   1.97    0.00    0.00   0.00   0.00   0.00   0.00   0.53   1.43
   17 048   117   116    7.0    0.0   0.00   6.01    6.2    5.2    0.0    6.1   6.34   2.06    0.00    0.00   0.00   0.00   0.00   0.00   0.57   1.71
   17 049   118   117    7.2    0.0   0.00   5.99    6.5    5.3    0.0    6.0   6.34   2.10    0.00    0.00   0.00   0.00   0.00   0.00   0.62   1.81
   17 050   119   118    7.4    0.0   0.00   6.09    6.7    5.4    0.0    6.1   6.34   2.06    0.00    0.00   0.00   0.00   0.00   0.00   0.64   1.91
   17 051   120   119    7.5    0.0   0.00   5.81    6.8    5.5    0.0    5.9   6.34   2.03    0.00    0.00   0.00   0.00   0.00   0.00   0.69   1.96
   17 052   121   120    7.9    0.0   0.00   5.92    7.3    5.7    0.0    6.0   6.34   1.99    0.00    0.00   0.00   0.00   0.00   0.00   0.70   2.17
   17 053   122   121    8.1    0.0   0.00   5.84    7.6    5.8    0.0    5.9   6.34   1.97    0.00    0.00   0.00   0.00   0.00   0.00   0.74   2.31
   17 054   123   122    8.5    0.0   0.00   5.53    8.0    6.0    0.0    5.7   6.34   1.96    0.00    0.00   0.00   0.07   0.13   0.13   0.85   2.48
   17 055   124   123    9.3    0.0   0.00   5.69    9.0    6.4    0.0    5.8   6.34   2.01    0.00    0.00   0.00   0.15   0.28   0.28   0.95   2.90
   17 056   125   124    9.8    0.0   0.00   5.81    9.6    6.6    0.0    5.9   6.34   2.04    0.00    0.00   0.00   0.10   0.20   0.20   1.06   3.16
   17 057   126   125   10.0    0.0   0.00   5.51    9.9    6.7    0.0    5.6   6.34   1.94    0.00    0.00   0.00   0.07   0.13   0.13   1.11   3.27
   17 058   127   126   10.2    0.0   0.00   5.06   10.0    6.8    0.0    5.3   6.34   1.70    0.00    0.00   0.00   0.15   0.27   0.27   1.14   3.35
   17 059   128   127   12.1    0.0   0.00   5.84   12.2    7.8    0.0    5.9   6.34   2.00    0.00    0.00   0.00   0.27   0.47   0.47   1.39   4.33
   17 060   129   128   12.5    0.0   0.00   5.64   12.7    8.0    0.0    5.7   6.34   2.03    0.00    0.00   0.00   0.05   0.09   0.09   1.52   4.51
   17 061   130   129   13.3    0.0   0.00   5.60   13.9    8.3    0.0    5.7   6.34   2.09    0.00    0.00   0.00   0.10   0.19   0.19   1.88   4.92
   17 062   131   130   14.2    0.0   0.00   5.70   15.1    8.8    0.0    5.8   6.34   2.05    0.00    0.00   0.00   0.11   0.21   0.21   2.07   5.39
   17 063   132   131   14.9    0.0   0.00   5.31   15.8    9.1    0.0    5.4   6.34   1.96    0.00    0.00   0.00   0.07   0.14   0.14   2.21   5.71
   17 064   133   132   16.6    0.0   0.00   5.50   18.0   10.0    0.0    5.6   6.34   2.02    0.00    0.00   0.00   0.18   0.33   0.33   2.55   6.59
   17 065   134   133   17.9    0.0   0.00   5.53   19.5   10.6    0.0    5.6   6.34   2.01    0.00    0.00   0.00   0.12   0.23   0.23   2.72   7.24
   17 066   135   134   19.2    0.0   0.00   5.75   20.9   11.3    0.0    5.8   6.34   2.03    0.00    0.00   0.00   0.11   0.21   0.21   2.90   7.87
   17 067   136   135   19.6    0.0   0.00   5.71   21.6   11.5    0.0    5.7   6.34   2.02    0.00    0.00   0.00   0.04   0.08   0.08   3.09   8.12
   17 068   137   136   20.2    0.0   0.00   5.61   22.3   11.8    0.0    5.6   6.34   1.96    0.00    0.00   0.00   0.05   0.10   0.10   3.11   8.42
   17 069   138   137   21.2    0.0   0.00   5.68   23.5   12.2    0.0    5.7   6.34   2.02    0.00    0.00   0.00   0.07   0.14   0.14   3.41   8.89
   17 070   139   138   22.8    0.0   0.00   5.94   25.3   13.0    0.0    5.9   6.34   2.00    0.00    0.00   0.00   0.05   0.10   0.10   3.55   9.70
   17 071   140   139   23.8    0.0   0.00   5.95   26.7   13.5    0.0    5.9   6.34   2.01    0.00    0.00   0.00   0.00   0.00   0.00   3.86  10.20
   17 072   141   140   24.7    0.0   0.00   5.92   28.0   14.0    0.0    5.9   6.34   2.00    0.00    0.00   0.00   0.00   0.00   0.00   4.16  10.68
   17 073   142   141   25.7    0.0   0.00   5.85   29.3   14.5    0.0    5.8   6.34   1.96    0.00    0.00   0.00   0.00   0.00   0.00   4.48  11.18
   17 074   143   142   26.6    0.0   0.00   5.69   30.6   15.0    0.0    5.7   6.34   1.87    0.00    0.00   0.00   0.00   0.00   0.00   4.76  11.65
   17 075   144   143   27.6    0.0   0.00   5.42   31.7   15.4    0.0    5.5   6.34   1.72    0.00    0.00   0.00   0.02   0.03   0.03   5.04  12.12
   17 076   145   144   28.5    0.0   0.00   4.99   33.0   15.9    0.0    5.1   6.34   1.57    0.00    0.00   0.00   0.09   0.17   0.17   5.27  12.61
   17 077   146   145   30.1    0.0   0.00   5.04   34.9   16.7    0.0    5.1   6.34   1.63    0.00    0.00   0.00   0.21   0.38   0.38   5.60  13.40
   17 078   147   146   31.5    0.0   0.00   4.86   36.6   17.4    0.0    4.9   6.34   1.62    0.00    0.00   0.00   0.19   0.34   0.34   5.84  14.09
   17 079   148   147   32.5    0.0   0.00   4.64   37.9   17.9    0.0    4.7   6.34   1.51    0.00    0.00   0.00   0.23   0.41   0.41   6.04  14.62
   17 080   149   148   33.6    0.0   0.00   4.48   39.3   18.4    0.0    4.6   6.34   1.41    0.00    0.00   0.00   0.29   0.50   0.50   6.28  15.18
   17 081   150   149   34.8    0.0   0.00   4.47   40.8   19.0    0.0    4.5   6.34   1.43    0.00    0.00   0.01   0.34   0.56   0.56   6.53  15.79
   17 082   151   150   35.8    0.0   0.00   4.36   42.1   19.5    0.0    4.4   6.34   1.37    0.00    0.00   0.00   0.33   0.56   0.56   6.73  16.26
   17 083   152   151   36.7    0.0   0.00   4.31   43.2   19.9    0.0    4.4   6.34   1.34    0.00    0.00   0.05   0.36   0.59   0.59   6.93  16.70
   17 084   153   152   37.5    0.0   0.00   4.22   44.2   20.3    0.0    4.3   6.34   1.29    0.00    0.00   0.06   0.37   0.61   0.61   7.11  17.10
   17 085   154   153   38.2    0.0   0.00   4.18   45.2   20.7    0.0    4.3   6.34   1.27    0.00    0.00   0.10   0.40   0.64   0.64   7.27  17.49
   17 086   155   154   38.9    0.0   0.00   4.09   46.1   21.0    0.0    4.2   6.34   1.23    0.00    0.00   0.11   0.40   0.64   0.64   7.42  17.83
   17 087   156   155   39.5    0.0   0.00   3.98   46.7   21.3    0.0    4.1   6.34   1.18    0.00    0.00   0.14   0.43   0.67   0.67   7.55  18.14
   17 088   157   156   40.1    0.0   0.00   3.83   47.1   21.6    0.0    3.9   6.34   1.12    0.00    0.00   0.18   0.45   0.70   0.70   7.67  18.42
   17 089   158   157   40.6    0.0   0.00   3.72   47.8   21.9    0.0    3.8   6.34   1.08    0.00    0.00   0.24   0.49   0.74   0.74   7.77  18.68
   17 090   159   158   41.1    0.0   0.00   3.58   48.4   22.1    0.0    3.7   6.34   1.02    0.00    0.00   0.28   0.52   0.77   0.77   7.87  18.92
   17 091   160   159   41.5    0.0   0.00   3.48   48.9   22.3    0.0    3.6   6.34   0.98    0.00    0.00   0.33   0.56   0.80   0.80   7.96  19.16
   17 092   161   160   42.0    0.0   0.00   3.38   49.3   22.6    0.0    3.5   6.34   0.95    0.00    0.00   0.37   0.58   0.83   0.83   8.05  19.39
   17 093   162   161   42.4    0.0   0.00   3.32   50.0   22.8    0.0    3.4   6.34   0.93    0.00    0.00   0.41   0.61   0.85   0.85   8.14  19.62
   17 094   163   162   42.9    0.0   0.00   3.29   50.6   23.0    0.0    3.4   6.34   0.92    0.00    0.00   0.44   0.63   0.86   0.86   8.24  19.86
   17 095   164   163   43.4    0.0   0.00   3.25   51.2   23.3    0.0    3.3   6.34   0.91    0.00    0.00   0.45   0.63   0.87   0.87   8.32  20.08
   17 096   165   164   43.8    0.0   0.00   3.24   51.8   23.5    0.0    3.3   6.34   0.91    0.00    0.00   0.47   0.64   0.87   0.87   8.40  20.29
   17 097   166   165   44.2    0.0   0.00   3.20   52.4   23.7    0.0    3.3   6.34   0.90    0.00    0.00   0.46   0.64   0.87   0.87   8.46  20.49
   17 098   167   166   44.5    0.0   0.00   3.14   52.6   23.8    0.0    3.2   6.34   0.88    0.00    0.00   0.48   0.65   0.88   0.88   8.52  20.68
   17 099   168   167   44.9    0.0   0.00   3.08   53.1   24.0    0.0    3.2   6.34   0.86    0.00    0.00   0.50   0.66   0.89   0.89   8.57  20.85
   17 100   169   168   45.2    0.0   0.00   3.01   53.5   24.2    0.0    3.1   6.34   0.83    0.00    0.00   0.52   0.68   0.90   0.90   8.61  21.02
   17 101   170   169   45.5    0.0   0.00   2.99   53.9   24.3    0.0    3.1   6.34   0.83    0.00    0.00   0.55   0.70   0.91   0.91   8.66  21.18
   17 102   171   170   45.8    0.0   0.00   2.96   54.3   24.5    0.0    3.0   6.34   0.82    0.00    0.00   0.55   0.70   0.91   0.91   8.69  21.34
   17 103   172   171   46.1    0.0   0.00   2.92   54.6   24.6    0.0    3.0   6.34   0.80    0.00    0.00   0.56   0.71   0.91   0.91   8.72  21.49
   17 104   173   172   46.5    0.0   0.00   2.89   54.9   24.8    0.0    3.0   6.34   0.80    0.00    0.00   0.58   0.72   0.92   0.92   8.76  21.65
   17 105   174   173   46.8    0.0   0.00   2.86   55.1   24.9    0.0    2.9   6.34   0.79    0.00    0.00   0.58   0.72   0.92   0.92   8.80  21.81
   17 106   175   174   47.1    0.0   0.00   2.84   55.6   25.1    0.0    2.9   6.34   0.79    0.00    0.00   0.60   0.73   0.93   0.93   8.85  21.97
   17 107   176   175   47.4    0.0   0.00   2.84   56.1   25.3    0.0    2.9   6.34   0.79    0.00    0.00   0.60   0.73   0.93   0.93   8.90  22.15
   17 108   177   176   47.8    0.0   0.00   2.84   56.6   25.4    0.0    2.9   6.34   0.79    0.00    0.00   0.60   0.73   0.93   0.93   8.95  22.32
   17 109   178   177   48.1    0.0   0.00   2.85   57.0   25.6    0.0    2.9   6.34   0.80    0.00    0.00   0.59   0.73   0.93   0.93   8.99  22.49
   17 110   179   178   48.4    0.0   0.00   2.86   57.5   25.7    0.0    2.9   6.34   0.81    0.00    0.00   0.59   0.72   0.92   0.92   9.03  22.64
   17 111   180   179   48.7    0.0   0.00   2.85   57.9   25.9    0.0    2.9   6.34   0.80    0.00    0.00   0.58   0.72   0.92   0.92   9.05  22.79
   17 112   181   180   49.0    0.0   0.00   2.83   58.3   26.0    0.0    2.9   6.34   0.80    0.00    0.00   0.58   0.72   0.92   0.92   9.08  22.94
   17 113   182   181   49.3    0.0   0.00   2.82   58.7   26.2    0.0    2.9   6.34   0.80    0.00    0.00   0.58   0.72   0.92   0.92   9.10  23.08
   17 114   183   182   49.6    0.0   0.00   2.80   59.1   26.3    0.0    2.9   6.34   0.79    0.00    0.00   0.58   0.72   0.92   0.92   9.12  23.22
   17 115   184   183   49.8    0.0   0.00   2.78   59.5   26.4    0.0    2.9   6.34   0.79    0.00    0.00   0.58   0.72   0.92   0.92   9.15  23.36
   17 116   185   184   50.1    0.0   0.00   2.78   59.9   26.6    0.0    2.9   6.34   0.79    0.00    0.00   0.59   0.73   0.93   0.93   9.17  23.51
   17 117   186   185   50.4    0.0   0.00   2.79   60.3   26.7    0.0    2.9   6.34   0.80    0.00    0.00   0.59   0.73   0.93   0.93   9.20  23.66
   17 118   187   186   50.7    0.0   0.00   2.79   60.6   26.9    0.0    2.9   6.34   0.80    0.00    0.00   0.58   0.72   0.92   0.92   9.21  23.79
   17 119   188   187   51.0    0.0   0.00   2.77   61.0   27.0    0.0    2.8   6.34   0.79    0.00    0.00   0.58   0.72   0.92   0.92   9.23  23.93
   17 120   189   188   51.2    0.0   0.00   2.74   61.4   27.1    0.0    2.8   6.34   0.79    0.00    0.00   0.58   0.72   0.92   0.92   9.24  24.06
   17 121   190   189   51.4    0.0   0.00   2.72   61.7   27.2    0.0    2.8   6.34   0.78    0.00    0.00   0.59   0.72   0.92   0.92   9.24  24.17
   17 122   191   190   51.6    0.0   0.00   2.69   62.0   27.3    0.0    2.8   6.34   0.76    0.00    0.00   0.59   0.73   0.93   0.93   9.24  24.28
   17 123   192   191   51.8    0.0   0.00   2.65   62.3   27.4    0.0    2.7   6.34   0.75    0.00    0.00   0.60   0.73   0.93   0.93   9.23  24.38
   17 124   193   192   52.0    0.0   0.00   2.62   62.6   27.5    0.0    2.7   6.34   0.74    0.00    0.00   0.61   0.74   0.93   0.93   9.22  24.48
   17 125   194   193   52.2    0.0   0.00   2.59   62.9   27.6    0.0    2.7   6.34   0.73    0.00    0.00   0.62   0.75   0.94   0.94   9.22  24.58
   17 126   195   194   52.4    0.0   0.00   2.55   63.2   27.7    0.0    2.6   6.34   0.71    0.00    0.00   0.63   0.75   0.94   0.94   9.21  24.68
   17 127   196   195   52.6    0.0   0.00   2.52   63.4   27.8    0.0    2.6   0.51   0.71    0.00    0.00   0.64   0.76   0.94   0.94   9.21  24.79
   17 128   197   196   52.8    0.0   0.00   2.49   63.7   27.9    0.0    2.6   0.32   0.71    0.00    0.00   0.65   0.77   0.94   0.94   9.20  24.88
   17 129   198   197   53.0    0.0   0.00   2.45   64.0   28.0    0.0    2.5   0.22   0.71    0.00    0.00   0.65   0.77   0.95   0.95   9.18  24.97
   17 130   199   198   53.2    0.0   0.00   2.38   64.2   28.1    0.1    2.5   0.16   0.70    0.00    0.00   0.67   0.78   0.95   0.95   9.16  25.06
   17 131   200   199   53.4    0.0   0.00   2.33   64.5   28.2    0.1    2.4   0.15   0.69    0.00    0.00   0.70   0.80   0.96   0.96   9.14  25.15
   17 132   201   200   53.6    0.0   0.00   2.29   64.7   28.2    0.1    2.4   0.14   0.69    0.00    0.00   0.71   0.80   0.96   0.96   9.12  25.23
   17 133   202   201   53.7    0.0   0.00   2.25   65.0   28.3    0.1    2.4   0.13   0.68    0.00    0.00   0.71   0.81   0.96   0.96   9.10  25.31
   17 134   203   202   53.9    0.0   0.00   2.21   65.2   28.4    0.1    2.4   0.13   0.68    0.00    0.00   0.72   0.81   0.97   0.97   9.07  25.38
   17 135   204   203   54.0    0.0   0.00   2.18   65.4   28.5    0.1    2.3   0.13   0.67    0.00    0.00   0.73   0.82   0.97   0.97   9.05  25.46
   17 136   205   204   54.2    0.0   0.00   2.14   65.7   28.5    0.2    2.3   0.14   0.67    0.00    0.00   0.73   0.82   0.97   0.97   9.05  25.54
   17 137   206   205   54.5    0.0   0.00   2.10   66.0   28.6    0.2    2.3   0.14   0.67    0.00    0.00   0.73   0.82   0.97   0.97   9.05  25.64
   17 138   207   206   54.7    0.0   0.00   2.07   66.4   28.7    0.2    2.3   0.15   0.66    0.00    0.00   0.73   0.82   0.97   0.97   9.06  25.73
   17 139   208   207   54.9    0.0   0.00   2.04   66.7   28.8    0.3    2.2   0.16   0.66    0.00    0.00   0.73   0.82   0.97   0.97   9.07  25.83
   17 140   209   208   55.1    0.0   0.00   2.02   67.0   28.9    0.3    2.2   0.17   0.66    0.00    0.00   0.73   0.82   0.97   0.97   9.08  25.92
   17 141   210   209   55.3    0.0   0.00   1.99   67.3   29.0    0.4    2.2   0.17   0.66    0.00    0.00   0.73   0.82   0.97   0.97   9.10  26.01
   17 142   211   210   55.6    0.0   0.00   1.96   67.7   29.1    0.4    2.2   0.18   0.66    0.00    0.00   0.72   0.82   0.97   0.97   9.12  26.09
   17 143   212   211   55.8    0.0   0.00   1.93   68.0   29.1    0.5    2.2   0.19   0.66    0.00    0.00   0.72   0.81   0.96   0.96   9.14  26.18
   17 144   213   212   56.7    0.0   0.00   1.93   69.5   29.5    0.8    2.2   0.27   0.68    0.00    0.00   0.72   0.81   0.96   0.96   9.55  26.54
   17 145   214   213   57.7    0.0   0.00   1.93   70.9   29.8    1.1    2.2   0.34   0.71    0.00    0.00   0.68   0.78   0.95   0.95   9.97  26.88
   17 146   215   214   58.3    0.0   0.00   1.90   71.8   29.9    1.3    2.2   0.36   0.72    0.00    0.00   0.64   0.76   0.94   0.94  10.19  27.09
   17 147   216   215   58.6    0.0   0.00   1.86   72.3   30.0    1.4    2.1   0.34   0.71    0.00    0.00   0.63   0.75   0.94   0.94  10.25  27.18
   17 148   217   216   58.8    0.0   0.00   1.82   72.7   30.1    1.5    2.1   0.33   0.71    0.00    0.00   0.63   0.75   0.94   0.94  10.28  27.25
   17 149   218   217   59.0    0.0   0.00   1.78   73.0   30.1    1.6    2.1   0.30   0.71    0.00    0.00   0.59   0.73   0.93   0.93  10.32  27.31
   17 150   219   218   62.5    0.0   0.00   1.84   79.0   30.6    3.9    2.2   0.64   0.86    0.00    0.00   0.52   0.68   0.90   0.90  12.72  27.99
   17 151   220   219   65.1    0.0   0.00   1.84   83.9   30.7    6.1    2.2   0.81   0.99    0.00    0.00   0.26   0.50   0.75   0.75  14.78  28.32
   17 152   221   220   66.4    0.0   0.00   1.79   86.2   30.7    7.3    2.2   0.78   1.03    0.00    0.00   0.11   0.41   0.65   0.65  15.68  28.37
   17 153   222   221   66.9    0.0   0.00   1.72   87.1   30.7    7.8    2.2   0.71   1.03    0.00    0.00   0.08   0.38   0.62   0.62  15.94  28.37
   17 154   223   222   70.5    0.0   0.00   1.73   93.1   30.7   11.4    2.2   0.89   1.16    0.00    0.00   0.07   0.38   0.62   0.62  18.21  28.37
   17 155   224   223   74.1    0.0   0.00   1.76   99.1   30.7   15.0    2.2   1.06   1.29    0.00    0.00   0.00   0.28   0.48   0.48  20.37  28.37
   17 156   225   224   77.9    0.0   0.00   1.79  105.1   30.7   18.8    2.2   1.20   1.40    0.00    0.00   0.00   0.13   0.24   0.24  22.37  28.37
   17 157   226   225   80.6    0.0   0.00   1.81  109.4   30.7   21.5    2.2   1.29   1.48    0.00    0.00   0.00   0.00   0.00   0.00  23.65  28.37
   17 158   227   226   83.2    0.0   0.00   1.80  113.2   30.7   24.1    2.2   1.31   1.53    0.00    0.00   0.00   0.00   0.00   0.00  24.63  28.37
   17 159   228   227   84.3    0.0   0.00   1.74  114.7   30.7   25.2    2.2   1.22   1.52    0.00    0.00   0.00   0.00   0.00   0.00  24.81  28.37
   17 160   229   228   85.1    0.0   0.00   1.69  115.8   30.7   26.0    2.2   1.15   1.51    0.00    0.00   0.00   0.00   0.00   0.00  24.88  28.37
   17 161   230   229   85.8    0.0   0.00   1.63  116.8   30.7   26.7    2.2   1.08   1.50    0.00    0.00   0.00   0.00   0.00   0.00  24.87  28.37
   17 162   231   230   86.4    0.0   0.00   1.57  117.6   30.7   27.3    2.2   1.01   1.49    0.00    0.00   0.00   0.00   0.00   0.00  24.82  28.37
   17 163   232   231   86.9    0.0   0.00   1.54  118.2   30.7   27.8    2.2   0.97   1.48    0.00    0.00   0.00   0.00   0.00   0.00  24.75  28.37
   17 164   233   232   87.4    0.0   0.00   1.49  119.0   30.7   28.3    2.2   0.92   1.47    0.00    0.00   0.00   0.00   0.00   0.00  24.69  28.37
   17 165   234   233   87.8    0.0   0.00   1.44  119.3   30.7   28.7    2.2   0.87   1.46    0.00    0.00   0.00   0.00   0.00   0.00  24.61  28.37
   17 166   235   234   90.1    0.0   0.00   1.43  122.6   30.7   31.0    2.2   0.89   1.50    0.00    0.00   0.00   0.00   0.00   0.00  25.36  28.37
   17 167   236   235   90.5    0.0   0.00   1.40  123.2   30.7   31.4    2.2   0.85   1.49    0.00    0.00   0.00   0.00   0.00   0.00  25.33  28.37
   17 168   237   236   90.8    0.0   0.00   1.36  123.7   30.7   31.8    2.2   0.82   1.49    0.00    0.00   0.00   0.00   0.00   0.00  25.26  28.37
   17 169   238   237   91.1    0.0   0.00   1.32  124.2   30.7   32.0    2.2   0.78   1.48    0.00    0.00   0.00   0.00   0.00   0.00  25.20  28.37
   17 170   239   238   91.4    0.0   0.00   1.29  124.6   30.7   32.3    2.2   0.75   1.47    0.00    0.00   0.00   0.00   0.00   0.00  25.15  28.37
   17 171   240   239   91.6    0.0   0.00   1.26  125.0   30.7   32.5    2.2   0.73   1.47    0.00    0.00   0.00   0.00   0.00   0.00  25.15  28.37
   17 172   241   240   91.7   22.0   2.32   1.08  125.3   26.7   27.1    1.9   0.74   1.47    0.00    0.00   0.00   0.00   0.00   0.00  25.16  15.89
   17 173   242   241   92.0   27.6   2.07   1.04  130.0   23.1   26.9    1.6   0.79   1.70    0.00    0.00   0.00   0.00   0.00   0.00  29.24  14.46
   17 174   243   242   92.0   32.9   1.88   1.00  130.4   20.0   25.9    1.4   0.83   1.71    0.00    0.00   0.00   0.00   0.00   0.00  29.38  13.24
   17 175   244   243   92.0   37.5   1.76   0.96  130.6   17.6   24.7    1.2   0.85   1.72    0.00    0.00   0.00   0.00   0.00   0.00  29.41  12.26
   17 176   245   244   92.0   41.6   1.69   0.92  130.7   15.7   23.3    1.1   0.86   1.72    0.00    0.00   0.00   0.00   0.00   0.00  29.20  11.46
   17 177   246   245   92.0   46.9   1.64   0.86  130.8   13.5   21.2    0.9   0.86   1.71    0.00    0.00   0.00   0.00   0.00   0.00  29.00  10.51
   17 178   247   246   92.2   51.6   1.69   0.78  131.0   11.8   19.1    0.8   0.79   1.71    0.00    0.00   0.00   0.00   0.00   0.00  28.68   9.77
   17 179   248   247   93.6   56.1   1.76   0.72  132.3   10.7   17.5    0.8   0.72   1.71    0.00    0.00   0.00   0.00   0.00   0.00  28.37   9.24
   17 180   249   248   95.5   60.3   1.81   0.67  134.1    9.9   16.4    0.7   0.68   1.71    0.00    0.00   0.00   0.00   0.00   0.00  28.07   8.84
   17 181   250   249   97.8   64.3   1.83   0.64  136.5    9.3   15.6    0.7   0.64   1.71    0.00    0.00   0.00   0.00   0.00   0.00  27.78   8.53
   17 182   251   250  100.2   68.0   1.86   0.62  138.9    8.9   15.0    0.6   0.62   1.71    0.00    0.00   0.00   0.00   0.00   0.00  27.49   8.28
   17 183   252   251  102.6   71.4   1.89   0.60  141.3    8.6   14.6    0.6   0.60   1.71    0.00    0.00   0.00   0.00   0.00   0.00  27.20   8.08
   17 184   253   252  105.0   74.6   1.90   0.58  143.3    8.4   14.2    0.6   0.58   1.68    0.00    0.00   0.00   0.00   0.00   0.00  26.56   7.90
   17 185   254   253  107.3   77.6   1.90   0.57  144.5    8.1   13.8    0.6   0.57   1.63    0.00    0.00   0.00   0.00   0.00   0.00  25.38   7.73
   17 186   255   254  109.2   80.1   1.89   0.56  145.1    7.9   13.5    0.6   0.56   1.55    0.00    0.00   0.00   0.00   0.00   0.00  24.01   7.57
   17 187   256   255  110.7   82.3   1.89   0.54  145.3    7.8   13.2    0.5   0.54   1.48    0.00    0.00   0.00   0.00   0.00   0.00  22.67   7.41
   17 188   257   256  111.8   84.0   1.89   0.53  145.5    7.6   12.9    0.5   0.53   1.43    0.00    0.00   0.00   0.00   0.00   0.00  21.62   7.24
   17 189   258   257  112.6   85.5   1.89   0.52  145.6    7.4   12.6    0.5   0.52   1.39    0.00    0.00   0.00   0.00   0.00   0.00  20.85   7.07
   17 190   259   258  113.2   86.8   1.87   0.51  150.8    7.2   12.3    0.5   0.51   1.70    0.00    0.00   0.00   0.00   0.00   0.00  25.25   6.90
   17 191   260   259  115.4   89.6   1.89   0.49  153.0    7.0   12.0    0.5   0.49   1.70    0.00    0.00   0.00   0.00   0.00   0.00  24.98   6.74
   17 192   261   260  117.6   92.4   1.90   0.48  155.2    6.9   11.7    0.5   0.48   1.70    0.00    0.00   0.00   0.00   0.00   0.00  24.72   6.57
   17 193   262   261  119.7   95.2   1.92   0.47  157.4    6.7   11.4    0.5   0.47   1.70    0.00    0.00   0.00   0.00   0.00   0.00  24.46   6.42
   17 194   263   262  121.9   97.9   1.92   0.46  159.5    6.5   11.2    0.5   0.46   1.70    0.00    0.00   0.00   0.00   0.00   0.00  24.20   6.27
   17 195   264   263  124.0  100.5   1.93   0.45  161.6    6.4   10.9    0.4   0.45   1.70    0.00    0.00   0.00   0.00   0.00   0.00  23.95   6.14
   17 196   265   264  126.1  103.1   1.95   0.44  163.7    6.3   10.7    0.4   0.44   1.70    0.00    0.00   0.00   0.00   0.00   0.00  23.70   6.01
   17 197   266   265  128.2  105.7   1.95   0.43  165.8    6.1   10.5    0.4   0.43   1.69    0.00    0.00   0.00   0.00   0.00   0.00  23.45   5.88
   17 198   267   266  130.3  108.3   1.96   0.42  167.9    6.0   10.2    0.4   0.42   1.69    0.00    0.00   0.00   0.00   0.00   0.00  23.21   5.76
   17 199   268   267  132.3  110.9   1.97   0.41  169.5    5.9   10.0    0.4   0.41   1.67    0.00    0.00   0.00   0.00   0.00   0.00  22.59   5.62
   17 200   269   268  134.2  113.3   1.99   0.40  170.5    5.7    9.7    0.4   0.40   1.60    0.00    0.00   0.00   0.00   0.00   0.00  21.45   5.47
   17 201   270   269  135.8  115.5   2.00   0.39  171.1    5.5    9.5    0.4   0.39   1.53    0.00    0.00   0.00   0.00   0.00   0.00  20.28   5.32
   17 202   271   270  137.1  117.3   2.01   0.38  171.6    5.4    9.2    0.4   0.38   1.47    0.00    0.00   0.00   0.00   0.00   0.00  19.33   5.16
   17 203   272   271  138.0  118.9   2.01   0.37  172.0    5.2    8.9    0.4   0.37   1.42    0.00    0.00   0.00   0.00   0.00   0.00  18.53   5.00
   17 204   273   272  138.8  120.3   2.02   0.36  172.2    5.0    8.6    0.4   0.36   1.39    0.00    0.00   0.00   0.00   0.00   0.00  17.88   4.85
   17 205   274   273  139.3  121.3   2.02   0.35  172.7    4.9    8.4    0.3   0.35   1.37    0.00    0.00   0.00   0.13   0.24   0.24  17.55   4.72
   17 206   275   274  140.1  122.2   2.02   0.34  174.6    4.9    8.3    0.3   0.34   1.47    0.00    0.00   0.00   0.20   0.37   0.37  18.53   4.68
   17 207   276   275  140.7  123.1   2.03   0.34  176.0    4.8    8.2    0.3   0.34   1.53    0.00    0.00   0.00   0.15   0.28   0.28  19.17   4.61
   17 208   277   276  141.6  124.3   2.04   0.33  177.4    4.7    8.1    0.3   0.33   1.57    0.00    0.00   0.00   0.12   0.23   0.23  19.44   4.54
   17 209   278   277  142.9  125.8   2.05   0.33  179.3    4.7    8.0    0.3   0.33   1.61    0.00    0.00   0.00   0.09   0.17   0.17  19.81   4.50
   17 210   279   278  144.1  127.1   2.06   0.33  181.0    4.6    7.9    0.3   0.33   1.66    0.00    0.00   0.00   0.01   0.03   0.03  20.19   4.45
   17 211   280   279  144.7  127.8   2.07   0.32  181.9    4.6    7.8    0.3   0.32   1.68    0.00    0.00   0.00   0.00   0.00   0.00  20.23   4.41
   17 212   281   280  144.8  128.3   2.07   0.32  181.9    4.5    7.7    0.3   0.32   1.68    0.00    0.00   0.00   0.00   0.00   0.00  20.02   4.31
   17 213   282   281  144.8  128.3   2.07   0.32  181.9    4.5    7.7    0.3   0.32   1.68    0.00    0.00   0.00   0.00   0.00   0.00  19.82   4.31
   17 214   283   282  144.8  128.3   2.07   0.32  181.9    4.5    7.7    0.3   0.32   1.68    0.00    0.00   0.00   0.00   0.00   0.00  19.82   4.31
   17 215   284   283  144.8  128.3   2.07   0.32  181.9    4.5    7.7    0.3   0.32   1.68    0.00    0.00   0.00   0.00   0.00   0.00  19.82   4.31
   17 216   285   284  144.8  128.3   2.07   0.32  181.9    4.5    7.7    0.3   0.32   1.68    0.00    0.00   0.00   0.00   0.00   0.00  19.82   4.31
   17 217   286   285  144.8  128.3   2.07   0.32  181.9    4.5    7.7    0.3   0.32   1.68    0.00    0.00   0.00   0.00   0.00   0.00  19.82   4.31
   17 218   287   286  144.8  128.3   2.07   0.32  181.9    4.5    7.7    0.3   0.32   1.68    0.00    0.00   0.00   0.00   0.00   0.00  19.82   4.31
   17 219   288   287  144.8  128.3   2.07   0.32  181.9    4.5    7.7    0.3   0.32   1.68    0.00    0.00   0.00   0.00   0.00   0.00  19.82   4.31

*DSSAT Cropping System Model Ver. 4.8.5.000 -release  MAR 01, 2026 09:34:40

*RUN   2        : 2                         WHAPS048 TUDU1701    2
 MODEL          : WHAPS048 - Wheat
 EXPERIMENT     : TUDU1701 WH
 DATA PATH      :
 TREATMENT  2   : 2                         WHAPS048
  
@YEAR DOY   DAS   DAP   CNAD   GNAD   GN%D   VN%D   NUPC   LNAD   SNAD   LN%D   SN%D   RN%D   SNN0C   SNN1C NFact1 NFact2 NFact3 NFact4  RootN lfshthN
   16 298     1     0    0.0    0.0   0.00   0.00    0.0    0.0    0.0    0.0   0.00   0.00    0.00    0.00   0.00   0.00   0.00   0.00   0.00   0.00
   16 299     2     1    0.0    0.0   0.00   0.00    0.0    0.0    0.0    0.0   0.00   0.00    0.00    0.00   0.00   0.00   0.00   0.00   0.00   0.00
   16 300     3     2    0.0    0.0   0.00   0.00    0.0    0.0    0.0    0.0   0.00   0.00    0.00    0.00   0.00   0.00   0.00   0.00   0.00   0.00
   16 301     4     3    0.0    0.0   0.00   0.00    0.0    0.0    0.0    0.0   0.00   0.00    0.00    0.00   0.00   0.00   0.00   0.00   0.00   0.00
   16 302     5     4    0.0    0.0   0.00   0.00    0.0    0.0    0.0    0.0   0.00   0.00    0.00    0.00   0.00   0.00   0.00   0.00   0.00   0.00
   16 303     6     5    0.0    0.0   0.00   0.00    0.0    0.0    0.0    0.0   0.00   0.00    0.00    0.00   0.00   0.00   0.00   0.00   0.00   0.00
   16 304     7     6    0.0    0.0   0.00   0.00    0.0    0.0    0.0    0.0   0.00   0.00    0.00    0.00   0.00   0.00   0.00   0.00   0.00   0.00
   16 305     8     7    0.0    0.0   0.00   0.00    0.0    0.0    0.0    0.0   0.00   0.00    0.00    0.00   0.00   0.00   0.00   0.00   0.00   0.00
   16 306     9     8    0.0    0.0   0.00   0.00    0.0    0.0    0.0    0.0   0.00   0.00    0.00    0.00   0.00   0.00   0.00   0.00   0.00   0.00
   16 307    10     9    0.0    0.0   0.00   0.00    0.0    0.0    0.0    0.0   0.00   0.00    0.00    0.00   0.00   0.00   0.00   0.00   0.00   0.00
   16 308    11    10    0.0    0.0   0.00   0.00    0.0    0.0    0.0    0.0   0.00   0.00    0.00    0.00   0.00   0.00   0.00   0.00   0.00   0.00
   16 309    12    11    0.0    0.0   0.00   0.00    0.0    0.0    0.0    0.0   0.00   0.00    0.00    0.00   0.00   0.00   0.00   0.00   0.00   0.00
   16 310    13    12    0.0    0.0   0.00   0.00    0.0    0.0    0.0    0.0   0.00   0.00    0.00    0.00   0.00   0.00   0.00   0.00   0.00   0.00
   16 311    14    13    1.0    0.0   0.00   9.97    0.2    0.6    0.0    6.0   6.34   4.48    0.00    0.00   0.00   0.00   0.00   0.00   1.07   0.41
   16 312    15    14    1.1    0.0   0.00  10.14    0.2    0.6    0.0    6.3   6.34   4.45    0.00    0.00   0.00   0.00   0.00   0.00   1.06   0.41
   16 313    16    15    1.1    0.0   0.00   9.91    0.2    0.6    0.0    6.2   6.34   4.41    0.00    0.00   0.00   0.00   0.00   0.00   1.05   0.41
   16 314    17    16    1.1    0.0   0.00   9.46    0.2    0.6    0.0    6.1   6.34   4.36    0.00    0.00   0.00   0.00   0.00   0.00   1.04   0.41
   16 315    18    17    1.1    0.0   0.00   8.57    0.2    0.7    0.0    5.7   6.34   4.32    0.00    0.00   0.00   0.00   0.00   0.00   1.03   0.41
   16 316    19    18    1.2    0.0   0.00   8.58    0.3    0.7    0.0    6.0   6.34   4.29    0.00    0.00   0.00   0.00   0.00   0.00   1.02   0.41
   16 317    20    19    1.2    0.0   0.00   8.75    0.4    0.8    0.0    6.3   6.34   4.26    0.00    0.00   0.00   0.00   0.00   0.00   1.01   0.41
   16 318    21    20    1.2    0.0   0.00   8.80    0.4    0.8    0.0    6.3   6.34   4.26    0.00    0.00   0.00   0.00   0.00   0.00   1.00   0.41
   16 319    22    21    1.2    0.0   0.00   8.80    0.4    0.8    0.0    6.3   6.34   4.26    0.00    0.00   0.00   0.00   0.00   0.00   0.99   0.41
   16 320    23    22    1.2    0.0   0.00   8.40    0.4    0.8    0.0    6.1   6.34   4.22    0.00    0.00   0.00   0.00   0.00   0.00   0.98   0.41
   16 321    24    23    1.2    0.0   0.00   6.60    0.4    0.8    0.0    4.8   6.34   4.19    0.00    0.00   0.00   0.00   0.00   0.00   0.97   0.41
   16 322    25    24    1.4    0.0   0.00   5.55    0.5    0.9    0.0    4.1   6.34   4.13    0.00    0.00   0.00   0.00   0.00   0.00   0.96   0.41
   16 323    26    25    1.4    0.0   0.00   4.52    0.6    1.0    0.0    3.4   6.34   4.09    0.00    0.00   0.00   0.00   0.00   0.00   0.95   0.41
   16 324    27    26    1.4    0.0   0.00   4.39    0.6    1.0    0.0    3.3   6.34   4.07    0.00    0.00   0.00   0.00   0.00   0.00   0.94   0.41
   16 325    28    27    1.5    0.0   0.00   4.14    0.6    1.1    0.0    3.2   6.34   3.98    0.00    0.00   0.00   0.00   0.00   0.00   0.93   0.41
   16 326    29    28    1.5    0.0   0.00   3.43    0.7    1.1    0.0    2.7   6.34   3.89    0.00    0.00   0.00   0.00   0.00   0.00   0.92   0.41
   16 327    30    29    1.6    0.0   0.00   2.96    0.7    1.1    0.0    2.3   6.34   3.82    0.00    0.00   0.00   0.00   0.00   0.00   0.91   0.41
   16 328    31    30    1.6    0.0   0.00   2.74    0.8    1.2    0.0    2.2   6.34   3.74    0.00    0.00   0.00   0.00   0.00   0.00   0.90   0.41
   16 329    32    31    1.7    0.0   0.00   2.60    0.8    1.2    0.0    2.1   6.34   3.70    0.00    0.00   0.00   0.00   0.00   0.00   0.89   0.41
   16 330    33    32    1.7    0.0   0.00   2.50    0.9    1.3    0.0    2.0   6.34   3.65    0.00    0.00   0.00   0.00   0.00   0.00   0.88   0.41
   16 331    34    33    1.7    0.0   0.00   2.53    0.9    1.3    0.0    2.1   6.34   3.62    0.00    0.00   0.00   0.00   0.00   0.00   0.87   0.41
   16 332    35    34    1.8    0.0   0.00   2.54    0.9    1.3    0.0    2.1   6.34   3.56    0.00    0.00   0.00   0.00   0.00   0.00   0.87   0.41
   16 333    36    35    1.8    0.0   0.00   2.57    0.9    1.4    0.0    2.1   6.34   3.56    0.00    0.00   0.00   0.00   0.00   0.00   0.86   0.41
   16 334    37    36    1.8    0.0   0.00   2.61    1.0    1.4    0.0    2.2   6.34   3.56    0.00    0.00   0.00   0.00   0.00   0.00   0.85   0.41
   16 335    38    37    1.8    0.0   0.00   2.64    1.0    1.4    0.0    2.2   6.34   3.56    0.00    0.00   0.00   0.00   0.00   0.00   0.84   0.41
   16 336    39    38    1.9    0.0   0.00   2.64    1.0    1.4    0.0    2.2   6.34   3.51    0.00    0.00   0.00   0.00   0.00   0.00   0.83   0.41
   16 337    40    39    1.9    0.0   0.00   2.64    1.0    1.4    0.0    2.3   6.34   3.47    0.00    0.00   0.00   0.00   0.00   0.00   0.82   0.41
   16 338    41    40    1.9    0.0   0.00   2.67    1.1    1.5    0.0    2.3   6.34   3.47    0.00    0.00   0.00   0.00   0.00   0.00   0.82   0.41
   16 339    42    41    1.9    0.0   0.00   2.69    1.1    1.5    0.0    2.3   6.34   3.47    0.00    0.00   0.00   0.00   0.00   0.00   0.81   0.41
   16 340    43    42    1.9    0.0   0.00   2.72    1.1    1.5    0.0    2.3   6.34   3.47    0.00    0.00   0.00   0.00   0.00   0.00   0.80   0.41
   16 341    44    43    1.9    0.0   0.00   2.74    1.1    1.5    0.0    2.4   6.34   3.47    0.00    0.00   0.00   0.00   0.00   0.00   0.79   0.41
   16 342    45    44    2.0    0.0   0.00   2.76    1.1    1.5    0.0    2.4   6.34   3.47    0.00    0.00   0.00   0.00   0.00   0.00   0.78   0.41
   16 343    46    45    2.0    0.0   0.00   2.78    1.1    1.5    0.0    2.4   6.34   3.47    0.00    0.00   0.00   0.00   0.00   0.00   0.78   0.41
   16 344    47    46    2.0    0.0   0.00   2.78    1.1    1.5    0.0    2.4   6.34   3.45    0.00    0.00   0.00   0.00   0.00   0.00   0.77   0.41
   16 345    48    47    2.0    0.0   0.00   2.73    1.2    1.6    0.0    2.4   6.34   3.34    0.00    0.00   0.00   0.00   0.00   0.00   0.76   0.41
   16 346    49    48    2.0    0.0   0.00   2.73    1.2    1.6    0.0    2.4   6.34   3.31    0.00    0.00   0.00   0.00   0.00   0.00   0.75   0.41
   16 347    50    49    2.0    0.0   0.00   2.73    1.2    1.6    0.0    2.4   6.34   3.27    0.00    0.00   0.00   0.00   0.00   0.00   0.74   0.42
   16 348    51    50    2.0    0.0   0.00   2.71    1.2    1.6    0.0    2.4   6.34   3.18    0.00    0.00   0.00   0.00   0.00   0.00   0.74   0.42
   16 349    52    51    2.0    0.0   0.00   2.68    1.2    1.6    0.0    2.4   6.34   3.10    0.00    0.00   0.00   0.00   0.00   0.00   0.73   0.42
   16 350    53    52    2.1    0.0   0.00   2.67    1.2    1.6    0.0    2.4   6.34   3.07    0.00    0.00   0.00   0.00   0.00   0.00   0.72   0.42
   16 351    54    53    2.1    0.0   0.00   2.69    1.2    1.6    0.0    2.4   6.34   3.07    0.00    0.00   0.00   0.00   0.00   0.00   0.72   0.42
   16 352    55    54    2.1    0.0   0.00   2.71    1.2    1.6    0.0    2.5   6.34   3.07    0.00    0.00   0.00   0.00   0.00   0.00   0.71   0.42
   16 353    56    55    2.1    0.0   0.00   2.72    1.2    1.7    0.0    2.5   6.34   3.07    0.00    0.00   0.00   0.00   0.00   0.00   0.70   0.42
   16 354    57    56    2.1    0.0   0.00   2.74    1.3    1.7    0.0    2.5   6.34   3.07    0.00    0.00   0.00   0.00   0.00   0.00   0.69   0.42
   16 355    58    57    2.1    0.0   0.00   2.75    1.3    1.7    0.0    2.5   6.34   3.07    0.00    0.00   0.00   0.00   0.00   0.00   0.69   0.42
   16 356    59    58    2.1    0.0   0.00   2.77    1.3    1.7    0.0    2.5   6.34   3.07    0.00    0.00   0.00   0.00   0.00   0.00   0.68   0.42
   16 357    60    59    2.1    0.0   0.00   2.78    1.3    1.7    0.0    2.5   6.34   3.07    0.00    0.00   0.00   0.00   0.00   0.00   0.67   0.42
   16 358    61    60    2.2    0.0   0.00   2.79    1.3    1.7    0.0    2.5   6.34   3.07    0.00    0.00   0.00   0.00   0.00   0.00   0.67   0.42
   16 359    62    61    2.2    0.0   0.00   2.78    1.3    1.7    0.0    2.5   6.34   3.03    0.00    0.00   0.00   0.00   0.00   0.00   0.66   0.42
   16 360    63    62    2.2    0.0   0.00   2.75    1.3    1.7    0.0    2.5   6.34   2.96    0.00    0.00   0.00   0.00   0.00   0.00   0.65   0.42
   16 361    64    63    2.2    0.0   0.00   2.71    1.3    1.7    0.0    2.5   6.34   2.88    0.00    0.00   0.00   0.00   0.00   0.00   0.65   0.43
   16 362    65    64    2.2    0.0   0.00   2.69    1.3    1.7    0.0    2.5   6.34   2.82    0.00    0.00   0.00   0.00   0.00   0.00   0.64   0.43
   16 363    66    65    2.2    0.0   0.00   2.68    1.3    1.8    0.0    2.5   6.34   2.77    0.00    0.00   0.00   0.00   0.00   0.00   0.63   0.43
   16 364    67    66    2.2    0.0   0.00   2.70    1.3    1.8    0.0    2.5   6.34   2.76    0.00    0.00   0.00   0.00   0.00   0.00   0.63   0.43
   16 365    68    67    2.2    0.0   0.00   2.71    1.4    1.8    0.0    2.6   6.34   2.76    0.00    0.00   0.00   0.00   0.00   0.00   0.62   0.43
   16 366    69    68    2.2    0.0   0.00   2.73    1.4    1.8    0.0    2.6   6.34   2.76    0.00    0.00   0.00   0.00   0.00   0.00   0.62   0.43
   17 001    70    69    2.3    0.0   0.00   2.75    1.4    1.8    0.0    2.6   6.34   2.76    0.00    0.00   0.00   0.00   0.00   0.00   0.61   0.44
   17 002    71    70    2.3    0.0   0.00   2.76    1.4    1.8    0.0    2.6   6.34   2.76    0.00    0.00   0.00   0.00   0.00   0.00   0.60   0.44
   17 003    72    71    2.3    0.0   0.00   2.78    1.4    1.8    0.0    2.6   6.34   2.76    0.00    0.00   0.00   0.00   0.00   0.00   0.60   0.44
   17 004    73    72    2.3    0.0   0.00   2.79    1.4    1.8    0.0    2.6   6.34   2.76    0.00    0.00   0.00   0.00   0.00   0.00   0.59   0.44
   17 005    74    73    2.3    0.0   0.00   2.81    1.4    1.8    0.0    2.7   6.34   2.76    0.00    0.00   0.00   0.00   0.00   0.00   0.59   0.44
   17 006    75    74    2.3    0.0   0.00   2.82    1.4    1.9    0.0    2.7   6.34   2.76    0.00    0.00   0.00   0.00   0.00   0.00   0.58   0.44
   17 007    76    75    2.3    0.0   0.00   2.84    1.4    1.9    0.0    2.7   6.34   2.76    0.00    0.00   0.00   0.00   0.00   0.00   0.57   0.44
   17 008    77    76    2.4    0.0   0.00   2.85    1.4    1.9    0.0    2.7   6.34   2.76    0.00    0.00   0.00   0.00   0.00   0.00   0.57   0.45
   17 009    78    77    2.4    0.0   0.00   2.87    1.4    1.9    0.0    2.7   6.34   2.76    0.00    0.00   0.00   0.00   0.00   0.00   0.56   0.45
   17 010    79    78    2.4    0.0   0.00   2.88    1.4    1.9    0.0    2.7   6.34   2.76    0.00    0.00   0.00   0.00   0.00   0.00   0.56   0.45
   17 011    80    79    2.4    0.0   0.00   2.90    1.4    1.9    0.0    2.7   6.34   2.76    0.00    0.00   0.00   0.00   0.00   0.00   0.55   0.45
   17 012    81    80    2.4    0.0   0.00   2.88    1.4    1.9    0.0    2.7   6.34   2.71    0.00    0.00   0.00   0.00   0.00   0.00   0.55   0.45
   17 013    82    81    2.4    0.0   0.00   2.87    1.4    1.9    0.0    2.7   6.34   2.67    0.00    0.00   0.00   0.00   0.00   0.00   0.54   0.45
   17 014    83    82    2.4    0.0   0.00   2.88    1.4    1.9    0.0    2.8   6.34   2.67    0.00    0.00   0.00   0.00   0.00   0.00   0.53   0.45
   17 015    84    83    2.4    0.0   0.00   2.89    1.5    1.9    0.0    2.8   6.34   2.67    0.00    0.00   0.00   0.00   0.00   0.00   0.53   0.46
   17 016    85    84    2.4    0.0   0.00   2.91    1.5    2.0    0.0    2.8   6.34   2.67    0.00    0.00   0.00   0.00   0.00   0.00   0.52   0.46
   17 017    86    85    2.5    0.0   0.00   2.92    1.5    2.0    0.0    2.8   6.34   2.67    0.00    0.00   0.00   0.00   0.00   0.00   0.52   0.46
   17 018    87    86    2.5    0.0   0.00   2.93    1.5    2.0    0.0    2.8   6.34   2.67    0.00    0.00   0.00   0.00   0.00   0.00   0.51   0.46
   17 019    88    87    2.5    0.0   0.00   2.94    1.5    2.0    0.0    2.8   6.34   2.67    0.00    0.00   0.00   0.00   0.00   0.00   0.51   0.46
   17 020    89    88    2.5    0.0   0.00   2.96    1.5    2.0    0.0    2.8   6.34   2.67    0.00    0.00   0.00   0.00   0.00   0.00   0.50   0.46
   17 021    90    89    2.5    0.0   0.00   2.97    1.5    2.0    0.0    2.8   6.34   2.67    0.00    0.00   0.00   0.00   0.00   0.00   0.50   0.46
   17 022    91    90    2.5    0.0   0.00   2.98    1.5    2.0    0.0    2.9   6.34   2.67    0.00    0.00   0.00   0.00   0.00   0.00   0.49   0.46
   17 023    92    91    2.5    0.0   0.00   2.99    1.5    2.0    0.0    2.9   6.34   2.67    0.00    0.00   0.00   0.00   0.00   0.00   0.49   0.47
   17 024    93    92    2.5    0.0   0.00   3.00    1.6    2.0    0.0    2.9   6.34   2.67    0.00    0.00   0.00   0.00   0.00   0.00   0.48   0.47
   17 025    94    93    2.5    0.0   0.00   3.01    1.6    2.0    0.0    2.9   6.34   2.67    0.00    0.00   0.00   0.00   0.00   0.00   0.48   0.47
   17 026    95    94    2.5    0.0   0.00   3.02    1.6    2.0    0.0    2.9   6.34   2.67    0.00    0.00   0.00   0.00   0.00   0.00   0.47   0.47
   17 027    96    95    2.5    0.0   0.00   3.03    1.6    2.1    0.0    2.9   6.34   2.67    0.00    0.00   0.00   0.00   0.00   0.00   0.47   0.47
   17 028    97    96    2.6    0.0   0.00   3.05    1.6    2.1    0.0    2.9   6.34   2.67    0.00    0.00   0.00   0.00   0.00   0.00   0.46   0.47
   17 029    98    97    2.6    0.0   0.00   3.06    1.6    2.1    0.0    2.9   6.34   2.67    0.00    0.00   0.00   0.00   0.00   0.00   0.46   0.47
   17 030    99    98    2.6    0.0   0.00   3.07    1.6    2.1    0.0    2.9   6.34   2.67    0.00    0.00   0.00   0.00   0.00   0.00   0.46   0.47
   17 031   100    99    2.6    0.0   0.00   3.01    1.6    2.1    0.0    2.9   6.34   2.55    0.00    0.00   0.00   0.00   0.00   0.00   0.45   0.47
   17 032   101   100    2.6    0.0   0.00   2.98    1.6    2.1    0.0    2.9   6.34   2.49    0.00    0.00   0.00   0.00   0.00   0.00   0.45   0.48
   17 033   102   101    2.6    0.0   0.00   2.92    1.6    2.1    0.0    2.9   6.34   2.37    0.00    0.00   0.00   0.00   0.00   0.00   0.44   0.48
   17 034   103   102    2.6    0.0   0.00   2.91    1.6    2.1    0.0    2.9   6.34   2.28    0.00    0.00   0.00   0.00   0.00   0.00   0.44   0.48
   17 035   104   103    5.6    0.0   0.00   6.03    4.6    4.6    0.0    6.1   6.34   2.13    0.00    0.00   0.00   0.00   0.00   0.00   0.43   1.00
   17 036   105   104    5.8    0.0   0.00   5.97    4.8    4.7    0.0    6.1   6.34   2.05    0.00    0.00   0.00   0.00   0.00   0.00   0.45   1.09
   17 037   106   105    6.0    0.0   0.00   6.11    5.1    4.8    0.0    6.2   6.34   2.04    0.00    0.00   0.00   0.00   0.00   0.00   0.46   1.22
   17 038   107   106    6.1    0.0   0.00   6.01    5.2    4.8    0.0    6.1   6.34   2.06    0.00    0.00   0.00   0.00   0.00   0.00   0.49   1.27
   17 039   108   107    6.3    0.0   0.00   6.22    5.4    4.9    0.0    6.2   6.34   2.06    0.00    0.00   0.00   0.00   0.00   0.00   0.48   1.37
   17 040   109   108    6.3    0.0   0.00   6.22    5.4    4.9    0.0    6.2   6.34   2.06    0.00    0.00   0.00   0.00   0.00   0.00   0.48   1.37
   17 041   110   109    6.3    0.0   0.00   6.22    5.4    4.9    0.0    6.2   6.34   2.06    0.00    0.00   0.00   0.00   0.00   0.00   0.47   1.37
   17 042   111   110    6.3    0.0   0.00   6.22    5.4    4.9    0.0    6.2   6.34   2.06    0.00    0.00   0.00   0.00   0.00   0.00   0.47   1.37
   17 043   112   111    6.3    0.0   0.00   6.22    5.4    4.9    0.0    6.2   6.34   2.06    0.00    0.00   0.00   0.00   0.00   0.00   0.46   1.37
   17 044   113   112    6.3    0.0   0.00   6.09    5.5    4.9    0.0    6.1   6.34   2.11    0.00    0.00   0.00   0.00   0.00   0.00   0.50   1.37
   17 045   114   113    6.3    0.0   0.00   6.09    5.5    4.9    0.0    6.1   6.34   2.12    0.00    0.00   0.00   0.00   0.00   0.00   0.49   1.38
   17 046   115   114    6.4    0.0   0.00   6.08    5.5    4.9    0.0    6.1   6.34   2.12    0.00    0.00   0.00   0.00   0.00   0.00   0.49   1.39
   17 047   116   115    6.4    0.0   0.00   5.66    5.6    5.0    0.0    5.8   6.34   1.92    0.00    0.00   0.00   0.00   0.00   0.00   0.51   1.42
   17 048   117   116    7.0    0.0   0.00   6.01    6.2    5.2    0.0    6.1   6.34   2.06    0.00    0.00   0.00   0.00   0.00   0.00   0.57   1.71
   17 049   118   117    7.2    0.0   0.00   5.99    6.5    5.3    0.0    6.0   6.34   2.10    0.00    0.00   0.00   0.00   0.00   0.00   0.62   1.81
   17 050   119   118    7.4    0.0   0.00   6.09    6.7    5.4    0.0    6.1   6.34   2.06    0.00    0.00   0.00   0.00   0.00   0.00   0.64   1.91
   17 051   120   119    7.5    0.0   0.00   5.81    6.8    5.5    0.0    5.9   6.34   2.03    0.00    0.00   0.00   0.00   0.00   0.00   0.69   1.96
   17 052   121   120    7.9    0.0   0.00   5.92    7.3    5.7    0.0    6.0   6.34   1.99    0.00    0.00   0.00   0.00   0.00   0.00   0.70   2.17
   17 053   122   121    8.1    0.0   0.00   5.84    7.6    5.8    0.0    5.9   6.34   1.97    0.00    0.00   0.00   0.00   0.00   0.00   0.74   2.31
   17 054   123   122    8.5    0.0   0.00   5.53    8.0    6.0    0.0    5.7   6.34   1.96    0.00    0.00   0.00   0.07   0.13   0.13   0.85   2.48
   17 055   124   123    9.3    0.0   0.00   5.69    9.0    6.4    0.0    5.8   6.34   2.01    0.00    0.00   0.00   0.15   0.28   0.28   0.95   2.90
   17 056   125   124    9.8    0.0   0.00   5.81    9.6    6.6    0.0    5.9   6.34   2.04    0.00    0.00   0.00   0.10   0.20   0.20   1.06   3.16
   17 057   126   125   10.0    0.0   0.00   5.52    9.9    6.7    0.0    5.6   6.34   1.95    0.00    0.00   0.00   0.07   0.13   0.13   1.11   3.28
   17 058   127   126   10.2    0.0   0.00   5.09   10.1    6.8    0.0    5.3   6.34   1.72    0.00    0.00   0.00   0.14   0.27   0.27   1.16   3.38
   17 059   128   127   12.1    0.0   0.00   5.84   12.2    7.8    0.0    5.9   6.34   2.00    0.00    0.00   0.00   0.26   0.46   0.46   1.39   4.33
   17 060   129   128   12.5    0.0   0.00   5.64   12.7    8.0    0.0    5.7   6.34   2.03    0.00    0.00   0.00   0.05   0.09   0.09   1.52   4.51
   17 061   130   129   13.3    0.0   0.00   5.60   13.9    8.3    0.0    5.7   6.34   2.09    0.00    0.00   0.00   0.10   0.19   0.19   1.88   4.92
   17 062   131   130   14.2    0.0   0.00   5.70   15.1    8.8    0.0    5.8   6.34   2.05    0.00    0.00   0.00   0.11   0.21   0.21   2.07   5.39
   17 063   132   131   14.9    0.0   0.00   5.31   15.9    9.1    0.0    5.4   6.34   1.96    0.00    0.00   0.00   0.07   0.14   0.14   2.21   5.71
   17 064   133   132   16.6    0.0   0.00   5.50   18.0   10.0    0.0    5.6   6.34   2.02    0.00    0.00   0.00   0.18   0.33   0.33   2.55   6.59
   17 065   134   133   17.9    0.0   0.00   5.53   19.5   10.6    0.0    5.6   6.34   2.01    0.00    0.00   0.00   0.12   0.23   0.23   2.72   7.24
   17 066   135   134   19.2    0.0   0.00   5.75   20.9   11.3    0.0    5.8   6.34   2.03    0.00    0.00   0.00   0.11   0.21   0.21   2.90   7.87
   17 067   136   135   19.6    0.0   0.00   5.71   21.6   11.5    0.0    5.7   6.34   2.02    0.00    0.00   0.00   0.04   0.08   0.08   3.09   8.12
   17 068   137   136   20.2    0.0   0.00   5.61   22.3   11.8    0.0    5.6   6.34   1.96    0.00    0.00   0.00   0.05   0.10   0.10   3.11   8.42
   17 069   138   137   21.2    0.0   0.00   5.68   23.5   12.2    0.0    5.7   6.34   2.02    0.00    0.00   0.00   0.07   0.14   0.14   3.41   8.89
   17 070   139   138   22.8    0.0   0.00   5.94   25.3   13.0    0.0    5.9   6.34   2.00    0.00    0.00   0.00   0.05   0.10   0.10   3.55   9.70
   17 071   140   139   23.8    0.0   0.00   5.95   26.7   13.5    0.0    5.9   6.34   2.01    0.00    0.00   0.00   0.00   0.00   0.00   3.86  10.20
   17 072   141   140   24.7    0.0   0.00   5.92   28.0   14.0    0.0    5.9   6.34   2.00    0.00    0.00   0.00   0.00   0.00   0.00   4.16  10.68
   17 073   142   141   25.8    0.0   0.00   5.87   29.4   14.5    0.0    5.9   6.34   1.98    0.00    0.00   0.00   0.00   0.00   0.00   4.50  11.22
   17 074   143   142   26.8    0.0   0.00   5.73   30.8   15.0    0.0    5.7   6.34   1.89    0.00    0.00   0.00   0.00   0.00   0.00   4.81  11.73
   17 075   144   143   27.8    0.0   0.00   5.46   32.0   15.5    0.0    5.5   6.34   1.75    0.00    0.00   0.00   0.01   0.01   0.01   5.12  12.24
   17 076   145   144   28.8    0.0   0.00   5.04   33.4   16.1    0.0    5.1   6.34   1.60    0.00    0.00   0.00   0.08   0.14   0.14   5.36  12.76
   17 077   146   145   30.3    0.0   0.00   5.06   35.2   16.8    0.0    5.1   6.34   1.65    0.00    0.00   0.00   0.20   0.35   0.35   5.65  13.49
   17 078   147   146   31.6    0.0   0.00   4.87   36.7   17.4    0.0    4.9   6.34   1.63    0.00    0.00   0.00   0.18   0.33   0.33   5.86  14.13
   17 079   148   147   32.6    0.0   0.00   4.64   38.0   17.9    0.0    4.7   6.34   1.51    0.00    0.00   0.00   0.23   0.41   0.41   6.05  14.66
   17 080   149   148   33.7    0.0   0.00   4.48   39.4   18.5    0.0    4.6   6.34   1.42    0.00    0.00   0.00   0.29   0.50   0.50   6.29  15.21
   17 081   150   149   34.9    0.0   0.00   4.46   40.9   19.0    0.0    4.5   6.34   1.43    0.00    0.00   0.01   0.34   0.56   0.56   6.52  15.80
   17 082   151   150   35.8    0.0   0.00   4.36   42.1   19.5    0.0    4.4   6.34   1.37    0.00    0.00   0.00   0.34   0.56   0.56   6.73  16.28
   17 083   152   151   36.7    0.0   0.00   4.31   43.2   20.0    0.0    4.4   6.34   1.34    0.00    0.00   0.05   0.36   0.60   0.60   6.92  16.72
   17 084   153   152   37.5    0.0   0.00   4.22   44.3   20.4    0.0    4.3   6.34   1.30    0.00    0.00   0.06   0.37   0.61   0.61   7.11  17.13
   17 085   154   153   38.3    0.0   0.00   4.18   45.3   20.7    0.0    4.3   6.34   1.28    0.00    0.00   0.09   0.40   0.64   0.64   7.28  17.52
   17 086   155   154   39.0    0.0   0.00   4.09   46.2   21.1    0.0    4.2   6.34   1.24    0.00    0.00   0.10   0.40   0.64   0.64   7.42  17.87
   17 087   156   155   39.6    0.0   0.00   3.98   46.8   21.4    0.0    4.1   6.34   1.19    0.00    0.00   0.14   0.42   0.67   0.67   7.55  18.18
   17 088   157   156   40.1    0.0   0.00   3.84   47.2   21.7    0.0    3.9   6.34   1.12    0.00    0.00   0.18   0.45   0.70   0.70   7.67  18.46
   17 089   158   157   40.7    0.0   0.00   3.73   47.9   21.9    0.0    3.8   6.34   1.08    0.00    0.00   0.24   0.49   0.74   0.74   7.77  18.72
   17 090   159   158   41.1    0.0   0.00   3.59   48.5   22.2    0.0    3.7   6.34   1.02    0.00    0.00   0.28   0.52   0.77   0.77   7.87  18.96
   17 091   160   159   41.6    0.0   0.00   3.48   49.0   22.4    0.0    3.6   6.34   0.98    0.00    0.00   0.33   0.56   0.80   0.80   7.96  19.20
   17 092   161   160   42.1    0.0   0.00   3.39   49.4   22.6    0.0    3.5   6.34   0.95    0.00    0.00   0.37   0.58   0.83   0.83   8.05  19.43
   17 093   162   161   42.5    0.0   0.00   3.32   50.1   22.8    0.0    3.4   6.34   0.93    0.00    0.00   0.41   0.61   0.85   0.85   8.14  19.67
   17 094   163   162   43.0    0.0   0.00   3.29   50.7   23.1    0.0    3.4   6.34   0.92    0.00    0.00   0.44   0.63   0.86   0.86   8.24  19.90
   17 095   164   163   43.4    0.0   0.00   3.25   51.3   23.3    0.0    3.3   6.34   0.91    0.00    0.00   0.45   0.63   0.87   0.87   8.32  20.12
   17 096   165   164   43.9    0.0   0.00   3.24   51.9   23.5    0.0    3.3   6.34   0.91    0.00    0.00   0.46   0.64   0.87   0.87   8.40  20.34
   17 097   166   165   44.3    0.0   0.00   3.20   52.4   23.7    0.0    3.3   6.34   0.90    0.00    0.00   0.46   0.64   0.87   0.87   8.46  20.53
   17 098   167   166   44.6    0.0   0.00   3.14   52.7   23.9    0.0    3.2   6.34   0.88    0.00    0.00   0.48   0.65   0.88   0.88   8.52  20.72
   17 099   168   167   45.0    0.0   0.00   3.08   53.1   24.0    0.0    3.2   6.34   0.86    0.00    0.00   0.49   0.66   0.89   0.89   8.57  20.89
   17 100   169   168   45.3    0.0   0.00   3.01   53.6   24.2    0.0    3.1   6.34   0.83    0.00    0.00   0.52   0.68   0.90   0.90   8.61  21.06
   17 101   170   169   45.6    0.0   0.00   2.99   54.0   24.4    0.0    3.1   6.34   0.83    0.00    0.00   0.55   0.70   0.91   0.91   8.65  21.22
   17 102   171   170   45.9    0.0   0.00   2.96   54.3   24.5    0.0    3.0   6.34   0.82    0.00    0.00   0.55   0.70   0.91   0.91   8.69  21.38
   17 103   172   171   46.2    0.0   0.00   2.92   54.7   24.7    0.0    3.0   6.34   0.80    0.00    0.00   0.56   0.71   0.91   0.91   8.72  21.53
   17 104   173   172   46.5    0.0   0.00   2.89   54.9   24.8    0.0    3.0   6.34   0.80    0.00    0.00   0.58   0.72   0.92   0.92   8.76  21.69
   17 105   174   173   46.8    0.0   0.00   2.86   55.2   25.0    0.0    2.9   6.34   0.79    0.00    0.00   0.58   0.72   0.92   0.92   8.80  21.85
   17 106   175   174   47.2    0.0   0.00   2.84   55.7   25.1    0.0    2.9   6.34   0.79    0.00    0.00   0.60   0.73   0.93   0.93   8.84  22.01
   17 107   176   175   47.5    0.0   0.00   2.84   56.2   25.3    0.0    2.9   6.34   0.79    0.00    0.00   0.60   0.73   0.93   0.93   8.89  22.18
   17 108   177   176   47.8    0.0   0.00   2.84   56.6   25.5    0.0    2.9   6.34   0.79    0.00    0.00   0.60   0.73   0.93   0.93   8.94  22.35
   17 109   178   177   48.2    0.0   0.00   2.85   57.1   25.6    0.0    2.9   6.34   0.80    0.00    0.00   0.59   0.73   0.93   0.93   8.99  22.52
   17 110   179   178   48.5    0.0   0.00   2.86   57.5   25.8    0.0    2.9   6.34   0.81    0.00    0.00   0.59   0.72   0.92   0.92   9.02  22.68
   17 111   180   179   48.8    0.0   0.00   2.85   57.9   25.9    0.0    2.9   6.34   0.80    0.00    0.00   0.58   0.72   0.92   0.92   9.04  22.82
   17 112   181   180   49.1    0.0   0.00   2.83   58.3   26.1    0.0    2.9   6.34   0.80    0.00    0.00   0.58   0.72   0.92   0.92   9.07  22.97
   17 113   182   181   49.3    0.0   0.00   2.82   58.7   26.2    0.0    2.9   6.34   0.80    0.00    0.00   0.58   0.72   0.92   0.92   9.09  23.11
   17 114   183   182   49.6    0.0   0.00   2.80   59.1   26.3    0.0    2.9   6.34   0.79    0.00    0.00   0.58   0.72   0.92   0.92   9.11  23.25
   17 115   184   183   49.9    0.0   0.00   2.78   59.5   26.5    0.0    2.9   6.34   0.79    0.00    0.00   0.58   0.72   0.92   0.92   9.14  23.40
   17 116   185   184   50.2    0.0   0.00   2.78   59.9   26.6    0.0    2.9   6.34   0.79    0.00    0.00   0.59   0.73   0.93   0.93   9.16  23.54
   17 117   186   185   50.5    0.0   0.00   2.79   60.3   26.8    0.0    2.9   6.34   0.80    0.00    0.00   0.59   0.73   0.93   0.93   9.19  23.69
   17 118   187   186   50.7    0.0   0.00   2.79   60.7   26.9    0.0    2.9   6.34   0.80    0.00    0.00   0.59   0.72   0.92   0.92   9.20  23.82
   17 119   188   187   51.0    0.0   0.00   2.77   61.1   27.0    0.0    2.8   6.34   0.79    0.00    0.00   0.58   0.72   0.92   0.92   9.23  23.96
   17 120   189   188   51.3    0.0   0.00   2.74   61.4   27.1    0.0    2.8   6.34   0.79    0.00    0.00   0.58   0.72   0.92   0.92   9.23  24.09
   17 121   190   189   51.5    0.0   0.00   2.72   61.8   27.3    0.0    2.8   6.34   0.78    0.00    0.00   0.59   0.72   0.92   0.92   9.24  24.20
   17 122   191   190   51.7    0.0   0.00   2.69   62.1   27.4    0.0    2.8   6.34   0.76    0.00    0.00   0.59   0.73   0.93   0.93   9.23  24.31
   17 123   192   191   51.9    0.0   0.00   2.65   62.3   27.5    0.0    2.7   6.34   0.75    0.00    0.00   0.60   0.73   0.93   0.93   9.22  24.41
   17 124   193   192   52.1    0.0   0.00   2.62   62.6   27.6    0.0    2.7   6.34   0.74    0.00    0.00   0.61   0.74   0.93   0.93   9.21  24.51
   17 125   194   193   52.3    0.0   0.00   2.59   62.9   27.7    0.0    2.7   6.34   0.73    0.00    0.00   0.62   0.75   0.94   0.94   9.21  24.61
   17 126   195   194   52.5    0.0   0.00   2.55   63.2   27.8    0.0    2.6   6.34   0.71    0.00    0.00   0.63   0.75   0.94   0.94   9.21  24.71
   17 127   196   195   52.7    0.0   0.00   2.52   63.5   27.9    0.0    2.6   0.51   0.71    0.00    0.00   0.64   0.76   0.94   0.94   9.20  24.82
   17 128   197   196   52.9    0.0   0.00   2.49   63.8   27.9    0.0    2.6   0.32   0.71    0.00    0.00   0.65   0.77   0.94   0.94   9.19  24.91
   17 129   198   197   53.1    0.0   0.00   2.45   64.0   28.0    0.0    2.5   0.22   0.71    0.00    0.00   0.65   0.77   0.95   0.95   9.17  25.00
   17 130   199   198   53.3    0.0   0.00   2.39   64.3   28.1    0.1    2.5   0.16   0.70    0.00    0.00   0.67   0.78   0.95   0.95   9.16  25.10
   17 131   200   199   53.4    0.0   0.00   2.33   64.5   28.2    0.1    2.4   0.14   0.69    0.00    0.00   0.70   0.80   0.96   0.96   9.14  25.18
   17 132   201   200   53.6    0.0   0.00   2.29   64.8   28.3    0.1    2.4   0.14   0.69    0.00    0.00   0.71   0.80   0.96   0.96   9.11  25.26
   17 133   202   201   53.8    0.0   0.00   2.25   65.0   28.4    0.1    2.4   0.13   0.68    0.00    0.00   0.71   0.81   0.96   0.96   9.09  25.34
   17 134   203   202   53.9    0.0   0.00   2.21   65.3   28.4    0.1    2.4   0.13   0.68    0.00    0.00   0.72   0.81   0.97   0.97   9.07  25.41
   17 135   204   203   54.1    0.0   0.00   2.18   65.5   28.5    0.1    2.3   0.13   0.67    0.00    0.00   0.73   0.82   0.97   0.97   9.05  25.49
   17 136   205   204   54.3    0.0   0.00   2.14   65.8   28.6    0.2    2.3   0.14   0.67    0.00    0.00   0.73   0.82   0.97   0.97   9.04  25.58
   17 137   206   205   54.5    0.0   0.00   2.10   66.1   28.7    0.2    2.3   0.14   0.67    0.00    0.00   0.73   0.82   0.97   0.97   9.04  25.67
   17 138   207   206   54.7    0.0   0.00   2.07   66.4   28.8    0.2    2.3   0.15   0.66    0.00    0.00   0.73   0.82   0.97   0.97   9.05  25.76
   17 139   208   207   55.0    0.0   0.00   2.04   66.7   28.8    0.3    2.2   0.16   0.66    0.00    0.00   0.73   0.82   0.97   0.97   9.06  25.86
   17 140   209   208   55.2    0.0   0.00   2.02   67.1   28.9    0.3    2.2   0.17   0.66    0.00    0.00   0.73   0.82   0.97   0.97   9.08  25.95
   17 141   210   209   55.4    0.0   0.00   1.99   67.4   29.0    0.4    2.2   0.17   0.66    0.00    0.00   0.73   0.82   0.97   0.97   9.09  26.04
   17 142   211   210   55.6    0.0   0.00   1.96   67.7   29.1    0.4    2.2   0.18   0.66    0.00    0.00   0.72   0.82   0.97   0.97   9.11  26.12
   17 143   212   211   55.9    0.0   0.00   1.93   68.0   29.2    0.5    2.2   0.19   0.66    0.00    0.00   0.72   0.81   0.96   0.96   9.13  26.21
   17 144   213   212   57.3    0.0   0.00   1.95   70.3   29.6    0.9    2.2   0.32   0.70    0.00    0.00   0.72   0.81   0.96   0.96   9.80  26.75
   17 145   214   213   58.4    0.0   0.00   1.95   72.0   30.0    1.3    2.2   0.40   0.73    0.00    0.00   0.65   0.77   0.95   0.95  10.32  27.17
   17 146   215   214   59.1    0.0   0.00   1.91   73.0   30.2    1.5    2.2   0.41   0.74    0.00    0.00   0.61   0.74   0.93   0.93  10.56  27.38
   17 147   216   215   59.4    0.0   0.00   1.87   73.5   30.3    1.6    2.1   0.39   0.74    0.00    0.00   0.61   0.74   0.93   0.93  10.62  27.48
   17 148   217   216   59.6    0.0   0.00   1.83   73.8   30.3    1.7    2.1   0.37   0.73    0.00    0.00   0.61   0.74   0.93   0.93  10.64  27.55
   17 149   218   217   59.8    0.0   0.00   1.79   74.2   30.4    1.8    2.1   0.34   0.73    0.00    0.00   0.57   0.72   0.92   0.92  10.68  27.61
   17 150   219   218   63.3    0.0   0.00   1.85   80.2   30.8    4.2    2.2   0.66   0.88    0.00    0.00   0.50   0.67   0.89   0.89  13.07  28.27
   17 151   220   219   65.7    0.0   0.00   1.84   84.5   30.9    6.2    2.2   0.79   0.99    0.00    0.00   0.24   0.50   0.75   0.75  14.89  28.55
   17 152   221   220   66.8    0.0   0.00   1.78   86.6   30.9    7.3    2.2   0.77   1.03    0.00    0.00   0.12   0.41   0.65   0.65  15.69  28.59
   17 153   222   221   67.3    0.0   0.00   1.72   87.6   30.9    7.8    2.2   0.70   1.03    0.00    0.00   0.09   0.39   0.63   0.63  15.94  28.59
   17 154   223   222   70.9    0.0   0.00   1.73   93.6   30.9   11.4    2.2   0.87   1.15    0.00    0.00   0.08   0.39   0.62   0.62  18.19  28.59
   17 155   224   223   74.6    0.0   0.00   1.76   99.6   30.9   15.0    2.2   1.04   1.28    0.00    0.00   0.00   0.28   0.48   0.48  20.34  28.59
   17 156   225   224   78.3    0.0   0.00   1.79  105.6   30.9   18.8    2.2   1.18   1.39    0.00    0.00   0.00   0.13   0.24   0.24  22.34  28.59
   17 157   226   225   81.0    0.0   0.00   1.81  109.7   30.9   21.4    2.2   1.27   1.47    0.00    0.00   0.00   0.00   0.00   0.00  23.58  28.59
   17 158   227   226   83.5    0.0   0.00   1.79  113.4   30.9   24.0    2.2   1.29   1.51    0.00    0.00   0.00   0.00   0.00   0.00  24.53  28.59
   17 159   228   227   84.6    0.0   0.00   1.73  114.9   30.9   25.0    2.2   1.20   1.50    0.00    0.00   0.00   0.00   0.00   0.00  24.71  28.59
   17 160   229   228   85.4    0.0   0.00   1.68  116.1   30.9   25.9    2.2   1.14   1.49    0.00    0.00   0.00   0.00   0.00   0.00  24.79  28.59
   17 161   230   229   86.1    0.0   0.00   1.63  117.0   30.9   26.5    2.2   1.06   1.48    0.00    0.00   0.00   0.00   0.00   0.00  24.78  28.59
   17 162   231   230   86.7    0.0   0.00   1.57  117.8   30.9   27.1    2.2   1.00   1.47    0.00    0.00   0.00   0.00   0.00   0.00  24.73  28.59
   17 163   232   231   87.2    0.0   0.00   1.53  118.5   30.9   27.6    2.2   0.96   1.47    0.00    0.00   0.00   0.00   0.00   0.00  24.66  28.59
   17 164   233   232   87.7    0.0   0.00   1.48  119.3   30.9   28.2    2.2   0.91   1.46    0.00    0.00   0.00   0.00   0.00   0.00  24.63  28.59
   17 165   234   233   88.1    0.0   0.00   1.44  119.6   30.9   28.6    2.2   0.86   1.45    0.00    0.00   0.00   0.00   0.00   0.00  24.55  28.59
   17 166   235   234   90.6    0.0   0.00   1.43  123.1   30.9   31.0    2.2   0.88   1.49    0.00    0.00   0.00   0.00   0.00   0.00  25.38  28.59
[...]
   17 088   157   156    4.6    0.0   0.00   2.54    3.6    3.4    0.0    2.8   6.34   0.87    0.00    0.00   0.89   0.93   0.99   0.99   0.37   1.17
   17 089   158   157    4.6    0.0   0.00   2.52    3.7    3.4    0.0    2.8   6.34   0.86    0.00    0.00   0.89   0.93   0.99   0.99   0.37   1.20
   17 090   159   158    4.7    0.0   0.00   2.51    3.8    3.4    0.0    2.8   6.34   0.85    0.00    0.00   0.89   0.93   0.99   0.99   0.38   1.23
   17 091   160   159    4.8    0.0   0.00   2.51    3.9    3.5    0.0    2.8   6.34   0.84    0.00    0.00   0.89   0.93   0.99   0.99   0.38   1.27
   17 092   161   160    4.9    0.0   0.00   2.51    4.0    3.5    0.0    2.8   6.34   0.83    0.00    0.00   0.89   0.92   0.99   0.99   0.39   1.31
   17 093   162   161    5.0    0.0   0.00   2.52    4.1    3.6    0.0    2.8   6.34   0.83    0.00    0.00   0.88   0.92   0.99   0.99   0.40   1.35
   17 094   163   162    5.0    0.0   0.00   2.54    4.2    3.6    0.0    2.8   6.34   0.84    0.00    0.00   0.87   0.91   0.99   0.99   0.40   1.39
   17 095   164   163    5.1    0.0   0.00   2.54    4.3    3.7    0.0    2.8   6.34   0.83    0.00    0.00   0.86   0.91   0.99   0.99   0.41   1.43
   17 096   165   164    5.3    0.0   0.00   2.56    4.4    3.7    0.0    2.9   6.34   0.84    0.00    0.00   0.85   0.90   0.99   0.99   0.42   1.48
   17 097   166   165    5.4    0.0   0.00   2.55    4.5    3.8    0.0    2.8   6.34   0.83    0.00    0.00   0.84   0.89   0.99   0.99   0.43   1.53
   17 098   167   166    5.5    0.0   0.00   2.53    4.6    3.9    0.0    2.8   6.34   0.82    0.00    0.00   0.84   0.89   0.99   0.99   0.44   1.58
   17 099   168   167    5.6    0.0   0.00   2.51    4.8    3.9    0.0    2.8   6.34   0.80    0.00    0.00   0.84   0.89   0.99   0.99   0.45   1.64
   17 100   169   168    5.7    0.0   0.00   2.50    4.9    4.0    0.0    2.8   6.34   0.79    0.00    0.00   0.84   0.89   0.99   0.99   0.46   1.71
   17 101   170   169    5.9    0.0   0.00   2.52    5.1    4.1    0.0    2.8   6.34   0.80    0.00    0.00   0.84   0.89   0.99   0.99   0.48   1.78
   17 102   171   170    6.0    0.0   0.00   2.52    5.3    4.2    0.0    2.8   6.34   0.80    0.00    0.00   0.83   0.88   0.99   0.99   0.49   1.85
   17 103   172   171    6.2    0.0   0.00   2.54    5.5    4.3    0.0    2.8   6.34   0.81    0.00    0.00   0.82   0.88   0.99   0.99   0.51   1.93
   17 104   173   172    6.4    0.0   0.00   2.56    5.7    4.4    0.0    2.8   6.34   0.82    0.00    0.00   0.80   0.87   0.98   0.98   0.53   2.01
   17 105   174   173    6.6    0.0   0.00   2.57    5.9    4.4    0.0    2.8   6.34   0.83    0.00    0.00   0.78   0.85   0.98   0.98   0.55   2.10
   17 106   175   174    6.8    0.0   0.00   2.60    6.1    4.5    0.0    2.9   6.34   0.84    0.00    0.00   0.77   0.85   0.98   0.98   0.57   2.19
   17 107   176   175    7.0    0.0   0.00   2.64    6.3    4.6    0.0    2.9   6.34   0.86    0.00    0.00   0.75   0.83   0.97   0.97   0.59   2.28
   17 108   177   176    7.2    0.0   0.00   2.67    6.5    4.8    0.0    2.9   6.34   0.88    0.00    0.00   0.72   0.81   0.97   0.97   0.61   2.37
   17 109   178   177    7.4    0.0   0.00   2.71    6.8    4.9    0.0    3.0   6.34   0.90    0.00    0.00   0.70   0.80   0.96   0.96   0.63   2.47
   17 110   179   178    7.6    0.0   0.00   2.72    7.0    5.0    0.0    3.0   6.34   0.90    0.00    0.00   0.67   0.78   0.95   0.95   0.65   2.57
   17 111   180   179    7.8    0.0   0.00   2.69    7.2    5.1    0.0    2.9   6.34   0.89    0.00    0.00   0.66   0.77   0.95   0.95   0.68   2.67
   17 112   181   180    8.0    0.0   0.00   2.70    7.5    5.2    0.0    2.9   6.34   0.90    0.00    0.00   0.67   0.78   0.95   0.95   0.70   2.78
   17 113   182   181    8.2    0.0   0.00   2.71    7.8    5.3    0.0    2.9   6.34   0.90    0.00    0.00   0.66   0.77   0.95   0.95   0.73   2.90
   17 114   183   182    8.5    0.0   0.00   2.64    8.0    5.4    0.0    2.9   6.34   0.87    0.00    0.00   0.65   0.77   0.95   0.95   0.76   3.02
   17 115   184   183    8.8    0.0   0.00   2.66    8.4    5.6    0.0    2.9   6.34   0.88    0.00    0.00   0.68   0.79   0.96   0.96   0.80   3.15
   17 116   185   184    9.0    0.0   0.00   2.71    8.7    5.7    0.0    2.9   6.34   0.91    0.00    0.00   0.67   0.78   0.95   0.95   0.83   3.29
   17 117   186   185    9.3    0.0   0.00   2.75    9.0    5.8    0.0    3.0   6.34   0.93    0.00    0.00   0.64   0.76   0.94   0.94   0.86   3.41
   17 118   187   186    9.5    0.0   0.00   2.77    9.2    6.0    0.0    3.0   6.34   0.95    0.00    0.00   0.61   0.74   0.93   0.93   0.88   3.52
   17 119   188   187    9.7    0.0   0.00   2.71    9.5    6.1    0.0    2.9   6.34   0.91    0.00    0.00   0.58   0.72   0.92   0.92   0.91   3.63
   17 120   189   188   10.0    0.0   0.00   2.61    9.7    6.2    0.0    2.8   6.34   0.87    0.00    0.00   0.62   0.75   0.94   0.94   0.94   3.74
   17 121   190   189   10.2    0.0   0.00   2.60   10.0    6.3    0.0    2.8   6.34   0.87    0.00    0.00   0.67   0.78   0.95   0.95   0.97   3.86
   17 122   191   190   10.4    0.0   0.00   2.56   10.3    6.4    0.0    2.8   6.34   0.85    0.00    0.00   0.67   0.78   0.95   0.95   1.00   3.98
   17 123   192   191   10.7    0.0   0.00   2.53   10.6    6.5    0.0    2.7   6.34   0.84    0.00    0.00   0.69   0.79   0.96   0.96   1.03   4.10
   17 124   193   192   10.9    0.0   0.00   2.51   10.9    6.7    0.0    2.7   6.34   0.84    0.00    0.00   0.70   0.80   0.96   0.96   1.06   4.23
   17 125   194   193   11.2    0.0   0.00   2.48   11.2    6.8    0.0    2.7   6.34   0.83    0.00    0.00   0.70   0.80   0.96   0.96   1.10   4.35
   17 126   195   194   11.4    0.0   0.00   2.42   11.5    6.9    0.0    2.6   6.34   0.81    0.00    0.00   0.71   0.80   0.96   0.96   1.13   4.48
   17 127   196   195   11.7    0.0   0.00   2.44   11.8    7.1    0.0    2.6   1.81   0.82    0.00    0.00   0.73   0.82   0.97   0.97   1.17   4.62
   17 128   197   196   12.0    0.0   0.00   2.45   12.1    7.2    0.0    2.6   1.26   0.84    0.00    0.00   0.71   0.81   0.96   0.96   1.21   4.76
   17 129   198   197   12.3    0.0   0.00   2.44   12.5    7.3    0.1    2.6   0.94   0.85    0.00    0.00   0.68   0.79   0.96   0.96   1.25   4.89
   17 130   199   198   12.5    0.0   0.00   2.37   12.8    7.5    0.1    2.6   0.70   0.83    0.00    0.00   0.68   0.79   0.95   0.95   1.29   5.02
   17 131   200   199   12.8    0.0   0.00   2.33   13.1    7.6    0.1    2.6   0.65   0.82    0.00    0.00   0.70   0.80   0.96   0.96   1.33   5.15
   17 132   201   200   13.1    0.0   0.00   2.30   13.5    7.7    0.1    2.5   0.64   0.81    0.00    0.00   0.71   0.80   0.96   0.96   1.38   5.29
   17 133   202   201   13.4    0.0   0.00   2.27   13.8    7.8    0.2    2.5   0.65   0.81    0.00    0.00   0.70   0.80   0.96   0.96   1.43   5.43
   17 134   203   202   13.7    0.0   0.00   2.24   14.2    8.0    0.2    2.5   0.66   0.81    0.00    0.00   0.70   0.80   0.96   0.96   1.48   5.56
   17 135   204   203   14.0    0.0   0.00   2.21   14.6    8.1    0.3    2.5   0.68   0.81    0.00    0.00   0.70   0.80   0.96   0.96   1.53   5.70
   17 136   205   204   14.4    0.0   0.00   2.17   15.0    8.2    0.3    2.4   0.67   0.80    0.00    0.00   0.69   0.80   0.96   0.96   1.59   5.83
   17 137   206   205   14.7    0.0   0.00   2.12   15.4    8.3    0.4    2.4   0.67   0.79    0.00    0.00   0.70   0.80   0.96   0.96   1.65   5.97
   17 138   207   206   15.0    0.0   0.00   2.09   15.8    8.5    0.5    2.4   0.69   0.80    0.00    0.00   0.71   0.81   0.96   0.96   1.71   6.10
   17 139   208   207   15.4    0.0   0.00   2.08   16.2    8.6    0.6    2.4   0.73   0.81    0.00    0.00   0.70   0.80   0.96   0.96   1.79   6.24
   17 140   209   208   15.7    0.0   0.00   2.05   16.6    8.7    0.7    2.4   0.75   0.81    0.00    0.00   0.69   0.79   0.96   0.96   1.87   6.38
   17 141   210   209   16.1    0.0   0.00   2.02   17.0    8.8    0.8    2.3   0.77   0.81    0.00    0.00   0.69   0.80   0.96   0.96   1.95   6.53
   17 142   211   210   16.5    0.0   0.00   1.99   17.3    9.0    0.9    2.3   0.79   0.82    0.00    0.00   0.68   0.79   0.96   0.96   2.04   6.67
   17 143   212   211   16.9    0.0   0.00   1.96   17.7    9.1    1.0    2.3   0.80   0.82    0.00    0.00   0.68   0.78   0.95   0.95   2.13   6.81
   17 144   213   212   17.3    0.0   0.00   1.95   18.1    9.2    1.2    2.3   0.83   0.83    0.00    0.00   0.67   0.78   0.95   0.95   2.24   6.95
   17 145   214   213   17.8    0.0   0.00   1.92   18.5    9.3    1.4    2.3   0.85   0.84    0.00    0.00   0.66   0.77   0.95   0.95   2.34   7.09
   17 146   215   214   18.2    0.0   0.00   1.88   18.8    9.4    1.6    2.2   0.84   0.84    0.00    0.00   0.65   0.76   0.94   0.94   2.46   7.22
   17 147   216   215   18.6    0.0   0.00   1.84   19.2    9.5    1.8    2.2   0.85   0.84    0.00    0.00   0.65   0.77   0.95   0.95   2.58   7.35
   17 148   217   216   19.1    0.0   0.00   1.81   19.8    9.6    2.0    2.2   0.86   0.85    0.00    0.00   0.65   0.76   0.94   0.94   2.72   7.48
   17 149   218   217   19.6    0.0   0.00   1.78   20.5    9.7    2.3    2.2   0.84   0.87    0.00    0.00   0.60   0.73   0.93   0.93   2.86   7.57
   17 150   219   218   20.1    0.0   0.00   1.75   21.2    9.7    2.7    2.2   0.83   0.89    0.00    0.00   0.52   0.68   0.90   0.90   3.02   7.64
   17 151   220   219   20.5    0.0   0.00   1.70   21.8    9.7    3.1    2.2   0.81   0.91    0.00    0.00   0.44   0.63   0.86   0.86   3.20   7.69
   17 152   221   220   21.0    0.0   0.00   1.65   22.5    9.7    3.6    2.2   0.80   0.93    0.00    0.00   0.41   0.61   0.85   0.85   3.39   7.71
   17 153   222   221   21.5    0.0   0.00   1.61   23.2    9.7    4.1    2.2   0.79   0.94    0.00    0.00   0.38   0.59   0.83   0.83   3.57   7.71
   17 154   223   222   22.0    0.0   0.00   1.57   24.0    9.7    4.6    2.2   0.78   0.96    0.00    0.00   0.34   0.56   0.81   0.81   3.76   7.71
   17 155   224   223   22.5    0.0   0.00   1.55   24.7    9.7    5.1    2.2   0.80   0.99    0.00    0.00   0.34   0.56   0.80   0.80   3.96   7.71
   17 156   225   224   23.1    0.0   0.00   1.52   25.5    9.7    5.6    2.2   0.81   1.01    0.00    0.00   0.26   0.50   0.75   0.75   4.15   7.71
   17 157   226   225   23.6    0.0   0.00   1.52   26.3    9.7    6.2    2.2   0.84   1.04    0.00    0.00   0.22   0.48   0.73   0.73   4.35   7.71
   17 158   227   226   24.2    0.0   0.00   1.48   27.1    9.7    6.8    2.2   0.83   1.05    0.00    0.00   0.15   0.43   0.68   0.68   4.54   7.71
   17 159   228   227   24.8    0.0   0.00   1.43   27.9    9.7    7.4    2.2   0.80   1.04    0.00    0.00   0.15   0.43   0.68   0.68   4.73   7.71
   17 160   229   228   25.4    0.0   0.00   1.40   28.8    9.7    8.0    2.2   0.80   1.05    0.00    0.00   0.15   0.44   0.68   0.68   4.92   7.71
   17 161   230   229   26.0    0.0   0.00   1.35   29.6    9.7    8.6    2.2   0.78   1.06    0.00    0.00   0.11   0.40   0.64   0.64   5.10   7.71
   17 162   231   230   26.6    0.0   0.00   1.31   30.2    9.7    9.2    2.2   0.75   1.07    0.00    0.00   0.04   0.36   0.59   0.59   5.28   7.71
   17 163   232   231   27.2    0.0   0.00   1.28   30.7    9.7    9.8    2.2   0.75   1.09    0.00    0.00   0.00   0.27   0.47   0.47   5.46   7.71
   17 164   233   232   27.8    0.0   0.00   1.24   31.2    9.7   10.4    2.2   0.73   1.10    0.00    0.00   0.00   0.11   0.21   0.21   5.63   7.71
   17 165   234   233   28.3    0.0   0.00   1.21   31.7    9.7   10.9    2.2   0.71   1.12    0.00    0.00   0.00   0.00   0.00   0.00   5.79   7.71
   17 166   235   234   28.9    0.0   0.00   1.18   32.4    9.7   11.4    2.2   0.70   1.14    0.00    0.00   0.00   0.00   0.00   0.00   5.96   7.71
   17 167   236   235   29.3    0.0   0.00   1.15   33.1    9.7   11.9    2.2   0.69   1.15    0.00    0.00   0.00   0.00   0.00   0.00   6.12   7.71
   17 168   237   236   29.8    0.0   0.00   1.12   33.8    9.7   12.4    2.2   0.67   1.17    0.00    0.00   0.00   0.00   0.00   0.00   6.29   7.71
   17 169   238   237   30.2    0.0   0.00   1.09   34.4    9.7   12.8    2.2   0.66   1.19    0.00    0.00   0.00   0.00   0.00   0.00   6.45   7.71
   17 170   239   238   30.6    0.0   0.00   1.07   35.1    9.7   13.2    2.2   0.64   1.21    0.00    0.00   0.00   0.00   0.00   0.00   6.63   7.71
   17 171   240   239   31.0    0.0   0.00   1.05   35.7    9.7   13.5    2.2   0.63   1.23    0.00    0.00   0.00   0.00   0.00   0.00   6.83   7.71
   17 172   241   240   31.2    9.5   2.41   0.83   36.2    6.0   13.0    1.4   0.72   1.28    0.00    0.00   0.00   0.00   0.00   0.00   7.15   2.65
   17 173   242   241   31.3   10.9   2.14   0.79   36.8    4.9   12.8    1.1   0.73   1.34    0.00    0.00   0.00   0.00   0.00   0.00   7.54   2.65
   17 174   243   242   31.5   12.1   1.99   0.76   37.4    4.2   12.5    1.0   0.72   1.38    0.00    0.00   0.00   0.00   0.00   0.00   7.86   2.63
   17 175   244   243   31.7   13.3   1.89   0.73   37.9    3.7   12.0    0.9   0.71   1.42    0.00    0.00   0.00   0.00   0.00   0.00   8.12   2.60
   17 176   245   244   32.0   14.4   1.81   0.71   38.3    3.4   11.6    0.8   0.70   1.44    0.00    0.00   0.00   0.00   0.00   0.00   8.32   2.56
   17 177   246   245   32.3   15.4   1.76   0.68   38.9    3.2   11.2    0.7   0.68   1.46    0.00    0.00   0.00   0.00   0.00   0.00   8.48   2.52
   17 178   247   246   32.7   16.4   1.72   0.66   39.5    3.0   10.9    0.7   0.66   1.48    0.00    0.00   0.00   0.00   0.00   0.00   8.63   2.47
   17 179   248   247   33.1   17.3   1.68   0.65   40.3    2.9   10.6    0.7   0.65   1.53    0.00    0.00   0.00   0.00   0.00   0.00   8.92   2.42
   17 180   249   248   33.6   18.2   1.65   0.63   41.2    2.8   10.2    0.6   0.64   1.56    0.00    0.00   0.00   0.00   0.00   0.00   9.14   2.37
   17 181   250   249   34.2   19.3   1.62   0.62   42.0    2.7    9.9    0.6   0.62   1.57    0.00    0.00   0.00   0.00   0.00   0.00   9.27   2.33
   17 182   251   250   34.8   20.2   1.59   0.61   42.8    2.6    9.7    0.6   0.61   1.59    0.00    0.00   0.00   0.00   0.00   0.00   9.36   2.28
   17 183   252   251   35.5   21.3   1.57   0.60   43.3    2.6    9.4    0.6   0.61   1.60    0.00    0.00   0.00   0.00   0.00   0.00   9.41   2.24
   17 184   253   252   36.1   22.3   1.55   0.59   43.9    2.5    9.1    0.6   0.60   1.60    0.00    0.00   0.00   0.00   0.00   0.00   9.42   2.20
   17 185   254   253   36.8   23.4   1.53   0.58   44.7    2.5    8.8    0.6   0.59   1.60    0.00    0.00   0.00   0.00   0.00   0.00   9.43   2.15
   17 186   255   254   37.5   24.4   1.52   0.57   45.4    2.4    8.5    0.6   0.58   1.59    0.00    0.00   0.00   0.00   0.00   0.00   9.42   2.11
   17 187   256   255   38.1   25.5   1.50   0.56   46.1    2.4    8.2    0.5   0.57   1.59    0.00    0.00   0.00   0.00   0.00   0.00   9.39   2.07
   17 188   257   256   38.8   26.5   1.49   0.55   46.8    2.3    7.9    0.5   0.57   1.59    0.00    0.00   0.00   0.00   0.00   0.00   9.35   2.02
   17 189   258   257   39.4   27.6   1.48   0.54   47.5    2.3    7.5    0.5   0.56   1.59    0.00    0.00   0.00   0.00   0.00   0.00   9.29   1.97
   17 190   259   258   40.0   28.7   1.47   0.53   48.4    2.2    7.2    0.5   0.55   1.62    0.00    0.00   0.00   0.00   0.00   0.00   9.45   1.93
   17 191   260   259   40.7   29.9   1.46   0.52   49.2    2.2    6.8    0.5   0.55   1.63    0.00    0.00   0.00   0.00   0.00   0.00   9.46   1.88
   17 192   261   260   41.5   31.1   1.45   0.51   50.1    2.1    6.4    0.5   0.54   1.66    0.00    0.00   0.00   0.00   0.00   0.00   9.55   1.83
   17 193   262   261   42.3   32.3   1.44   0.51   51.1    2.1    6.1    0.5   0.53   1.70    0.00    0.00   0.00   0.00   0.00   0.00   9.69   1.79
   17 194   263   262   43.1   33.6   1.43   0.49   52.0    2.0    5.7    0.5   0.52   1.70    0.00    0.00   0.00   0.00   0.00   0.00   9.62   1.75
   17 195   264   263   43.9   34.9   1.45   0.47   52.8    2.0    5.4    0.4   0.49   1.70    0.00    0.00   0.00   0.00   0.00   0.00   9.51   1.71
   17 196   265   264   44.8   36.0   1.47   0.45   53.7    1.9    5.1    0.4   0.47   1.70    0.00    0.00   0.00   0.00   0.00   0.00   9.41   1.68
   17 197   266   265   45.6   37.1   1.48   0.44   54.5    1.9    4.9    0.4   0.45   1.69    0.00    0.00   0.00   0.00   0.00   0.00   9.31   1.64
   17 198   267   266   46.4   38.2   1.50   0.43   55.3    1.8    4.8    0.4   0.43   1.69    0.00    0.00   0.00   0.00   0.00   0.00   9.22   1.61
   17 199   268   267   47.2   39.3   1.51   0.42   56.1    1.8    4.6    0.4   0.42   1.69    0.00    0.00   0.00   0.00   0.00   0.00   9.12   1.57
   17 200   269   268   48.0   40.3   1.53   0.40   56.9    1.8    4.5    0.4   0.40   1.69    0.00    0.00   0.00   0.00   0.00   0.00   9.02   1.53
   17 201   270   269   48.9   41.3   1.56   0.39   57.7    1.7    4.3    0.4   0.39   1.69    0.00    0.00   0.00   0.00   0.00   0.00   8.93   1.49
   17 202   271   270   49.7   42.4   1.58   0.38   58.5    1.7    4.2    0.4   0.38   1.69    0.00    0.00   0.00   0.00   0.00   0.00   8.82   1.46
   17 203   272   271   50.6   43.4   1.60   0.37   59.3    1.6    4.1    0.4   0.37   1.68    0.00    0.00   0.00   0.00   0.00   0.00   8.68   1.42
   17 204   273   272   51.3   44.3   1.62   0.37   60.0    1.6    4.0    0.4   0.37   1.69    0.00    0.00   0.00   0.00   0.00   0.00   8.64   1.39
   17 205   274   273   51.8   44.8   1.63   0.36   60.5    1.6    4.0    0.4   0.36   1.69    0.00    0.00   0.00   0.00   0.00   0.00   8.56   1.37
   17 206   275   274   52.3   45.5   1.64   0.35   61.0    1.6    3.9    0.4   0.35   1.69    0.00    0.00   0.00   0.00   0.00   0.00   8.47   1.35
   17 207   276   275   52.6   45.9   1.65   0.35   61.3    1.5    3.8    0.3   0.35   1.69    0.00    0.00   0.00   0.00   0.00   0.00   8.38   1.33
   17 208   277   276   52.9   46.3   1.66   0.34   61.6    1.5    3.8    0.3   0.34   1.68    0.00    0.00   0.00   0.00   0.00   0.00   8.29   1.31
   17 209   278   277   53.4   46.9   1.67   0.34   62.1    1.5    3.7    0.3   0.34   1.68    0.00    0.00   0.00   0.00   0.00   0.00   8.21   1.28
   17 210   279   278   53.8   47.4   1.68   0.33   62.5    1.4    3.6    0.3   0.33   1.68    0.00    0.00   0.00   0.00   0.00   0.00   8.12   1.26
   17 211   280   279   53.9   47.7   1.69   0.32   62.6    1.4    3.6    0.3   0.32   1.68    0.00    0.00   0.00   0.00   0.00   0.00   8.04   1.23
   17 212   281   280   54.0   47.9   1.69   0.32   62.7    1.4    3.5    0.3   0.32   1.68    0.00    0.00   0.00   0.00   0.00   0.00   7.96   1.20
   17 213   282   281   54.0   47.9   1.69   0.32   62.7    1.4    3.5    0.3   0.32   1.68    0.00    0.00   0.00   0.00   0.00   0.00   7.88   1.20
   17 214   283   282   54.0   47.9   1.69   0.32   62.7    1.4    3.5    0.3   0.32   1.68    0.00    0.00   0.00   0.00   0.00   0.00   7.88   1.20
   17 215   284   283   54.0   47.9   1.69   0.32   62.7    1.4    3.5    0.3   0.32   1.68    0.00    0.00   0.00   0.00   0.00   0.00   7.88   1.20
   17 216   285   284   54.0   47.9   1.69   0.32   62.7    1.4    3.5    0.3   0.32   1.68    0.00    0.00   0.00   0.00   0.00   0.00   7.88   1.20
   17 217   286   285   54.0   47.9   1.69   0.32   62.7    1.4    3.5    0.3   0.32   1.68    0.00    0.00   0.00   0.00   0.00   0.00   7.88   1.20
   17 218   287   286   54.0   47.9   1.69   0.32   62.7    1.4    3.5    0.3   0.32   1.68    0.00    0.00   0.00   0.00   0.00   0.00   7.88   1.20
   17 219   288   287   54.0   47.9   1.69   0.32   62.7    1.4    3.5    0.3   0.32   1.68    0.00    0.00   0.00   0.00   0.00   0.00   7.88   1.20
