*GROWTH ASPECTS OUTPUT FILE

*DSSAT Cropping System Model Ver. 4.8.5.000 -release  MAR 01, 2026 09:34:40

*RUN   1        : 1                         WHAPS048 TUDU1701    1
 MODEL          : WHAPS048 - Wheat
 EXPERIMENT     : TUDU1701 WH
 DATA PATH      :
 TREATMENT  1   : 1                         WHAPS048
  
!                                                                                                                                                                                                                                             Root Dens. (cm/cm3) by soil depth (cm):
!                                                                                                                                                                                                                                             0-5    5-15   15-20   20-30   30-40   40-50   50-60   60-70   70-90  90-210
@YEAR DOY   DAS   DAP    DCCD  GSTD   LAID   LWAD   SWAD   GWAD   RWAD   VWAD   CWAD   G#AD   G#AD2  GWGD   HIAD   SHAD   WSPD   WSGD   SLFT   NSTD   EWSD  PST1A  PST2A   KSTD   LN%D   TPSM   HIPD   PWDD   PWTD     SLAD   CHTD   CWID   RDPD    RL1D    RL2D    RL3D    RL4D    RL5D    RL6D    RL7D    RL8D    RL9D   RL10D   CDAD   LDAD   SDAD   SNW0C   SNW1C    DTTD   SUMDTT
   16 298     1     0   0.000     8  0.000      0      0      0      0      0      0      0      0    0.0  0.000      0   0.00   0.00   0.00   0.00   0.00   0.00   0.00   1.00   0.00    0.0   0.00      0      0      0.0   0.00   0.00 0.0250   0.000   0.000   0.000   0.000   0.000   0.000   0.000   0.000   0.000   0.000      0      0      0       0       0  12.250    0.000
   16 299     2     1   0.000     8  0.000      0      0      0      0      0      0      0      0    0.0  0.000      0   0.00   0.00   0.00   0.00   0.00   0.00   0.00   1.00   0.00    0.0   0.00      0      0      0.0   0.00   0.00 0.0250   0.000   0.000   0.000   0.000   0.000   0.000   0.000   0.000   0.000   0.000      0      0      0       0       0  10.800   10.800
   16 300     3     2   1.282     9  0.000      0      0      0      0      0      0      0      0    0.0  0.000      0   0.00   0.00   0.00   0.00   0.00   0.00   0.00   1.00   0.00    0.0   0.00      0      0      0.0   0.00   0.00 0.0250   0.000   0.000   0.000   0.000   0.000   0.000   0.000   0.000   0.000   0.000      0      0      0       0       0   8.400    8.400
   16 301     4     3   2.237     9  0.000      0      0      0      0      0      0      0      0    0.0  0.000      0   0.00   0.00   0.00   0.00   0.00   0.00   0.00   1.00   0.00    0.0   0.00      0      0      0.0   0.00   0.00 0.0334   0.000   0.000   0.000   0.000   0.000   0.000   0.000   0.000   0.000   0.000      0      0      0       0       0   6.250   14.650
   16 302     5     4   3.191     9  0.000      0      0      0      0      0      0      0      0    0.0  0.000      0   0.00   0.00   0.00   0.00   0.00   0.00   0.00   1.00   0.00    0.0   0.00      0      0      0.0   0.00   0.00 0.0397   0.000   0.000   0.000   0.000   0.000   0.000   0.000   0.000   0.000   0.000      0      0      0       0       0   6.250   20.900
   16 303     6     5   4.260     9  0.000      0      0      0      0      0      0      0      0    0.0  0.000      0   0.00   0.00   0.00   0.00   0.00   0.00   0.00   1.00   0.00    0.0   0.00      0      0      0.0   0.00   0.00 0.0459   0.000   0.000   0.000   0.000   0.000   0.000   0.000   0.000   0.000   0.000      0      0      0       0       0   7.000   27.900
   16 304     7     6   5.198     9  0.000      0      0      0      0      0      0      0      0    0.0  0.000      0   0.00   0.00   0.00   0.00   0.00   0.00   0.00   1.00   0.00    0.0   0.00      0      0      0.0   0.00   0.00 0.0500   0.000   0.000   0.000   0.000   0.000   0.000   0.000   0.000   0.000   0.000      0      0      0       0       0   6.150   34.050
   16 305     8     7   6.015     9  0.000      0      0      0      0      0      0      0      0    0.0  0.000      0   0.00   0.00   0.00   0.00   0.00   0.00   0.00   1.00   0.00    0.0   0.00      0      0      0.0   0.00   0.00 0.0500   0.000   0.000   0.000   0.000   0.000   0.000   0.000   0.000   0.000   0.000      0      0      0       0       0   5.350   39.400
   16 306     9     8   6.519     9  0.000      0      0      0      0      0      0      0      0    0.0  0.000      0   0.00   0.00   0.00   0.00   0.00   0.00   0.00   1.00   0.00    0.0   0.00      0      0      0.0   0.00   0.00 0.0500   0.000   0.000   0.000   0.000   0.000   0.000   0.000   0.000   0.000   0.000      0      0      0       0       0   3.300   42.700
   16 307    10     9   7.420     9  0.000      0      0      0      0      0      0      0      0    0.0  0.000      0   0.00   0.00   0.00   0.00   0.00   0.00   0.00   1.00   0.00    0.0   0.00      0      0      0.0   0.00   0.00 0.0500   0.000   0.000   0.000   0.000   0.000   0.000   0.000   0.000   0.000   0.000      0      0      0       0       0   5.900   48.600
   16 308    11    10   8.082     9  0.000      0      0      0      0      0      0      0      0    0.0  0.000      0   0.00   0.00   0.00   0.00   0.00   0.00   0.00   1.00   0.00    0.0   0.00      0      0      0.0   0.00   0.00 0.0500   0.000   0.000   0.000   0.000   0.000   0.000   0.000   0.000   0.000   0.000      0      0      0       0       0   4.335   52.935
   16 309    12    11   8.718     9  0.000      0      0      0      0      0      0      0      0    0.0  0.000      0   0.00   0.00   0.00   0.00   0.00   0.00   0.00   1.00   0.00    0.0   0.00      0      0      0.0   0.00   0.00 0.0500   0.000   0.000   0.000   0.000   0.000   0.000   0.000   0.000   0.000   0.000      0      0      0       0       0   4.165   57.100
   16 310    13    12   9.855     9  0.000      0      0      0      0      0      0      0      0    0.0  0.000      0   0.00   0.00   0.00   0.00   0.00   0.00   0.00   1.00   0.00    0.0   0.00      0      0      0.0   0.00   0.00 0.0500   0.000   0.000   0.000   0.000   0.000   0.000   0.000   0.000   0.000   0.000      0      0      0       0       0   7.450   64.550
   16 311    14    13  10.175     1  0.017     10      0      0     24     10     10      0      0    0.0  0.000      0   0.00   0.00   1.00   0.00   0.00   0.00   0.00   1.00   6.00  400.0   0.00      0      0    397.7   0.00   0.00 0.0564   0.045   0.003   0.000   0.000   0.000   0.000   0.000   0.000   0.000   0.000      0      0      0       0       0   4.450    3.500
   16 312    15    14  10.192     1  0.017     10      0      0     24     10     10      0      0    0.0  0.000      0   0.00   0.00   1.00   0.00   0.00   0.00   0.00   1.00   6.29  400.0   0.00      0      0    397.5   0.00   0.00 0.0595   0.045   0.003   0.000   0.000   0.000   0.000   0.000   0.000   0.000   0.000      0      0      0       0       0   2.206    3.839
   16 313    16    15  10.214     1  0.017     10      0      0     24     11     11      0      0    0.0  0.000      0   0.00   0.00   1.00   0.00   0.00   0.00   0.00   1.00   6.24  400.0   0.00      0      0    397.2   0.00   0.00 0.0631   0.044   0.003   0.000   0.000   0.000   0.000   0.000   0.000   0.000   0.000      0      0      0       0       0   2.497    4.280
   16 314    17    16  10.239     1  0.019     10      0      0     24     11     11      0      0    0.0  0.000      1   0.00   0.00   1.00   0.00   0.00   0.00   0.00   1.00   6.14  400.0   0.00      0      1    396.9   0.00   0.00 0.0667   0.044   0.003   0.000   0.000   0.000   0.000   0.000   0.000   0.000   0.000      0      0      0       0       0   2.550    4.774
   16 315    18    17  10.281     1  0.019     11      0      0     24     13     13      0      0    0.0  0.000      1   0.00   0.00   1.00   0.00   0.00   0.00   0.00   1.00   5.69  400.0   0.00      0      1    396.4   0.00   0.00 0.0732   0.044   0.003   0.000   0.000   0.000   0.000   0.000   0.000   0.000   0.000      0      0      0       0       0   4.500    5.612
   16 316    19    18  10.309     1  0.020     12      0      0     24     14     14      0      0    0.0  0.000      1   0.00   0.00   1.00   0.00   0.00   0.00   0.00   1.00   5.97  400.0   0.00      0      1    396.0   0.00   0.00 0.0777   0.043   0.003   0.000   0.000   0.000   0.000   0.000   0.000   0.000   0.000      0      0      0       0       0   3.200    6.184
   16 317    20    19  10.327     1  0.021     12      0      0     24     14     14      0      0    0.0  0.000      1   0.00   0.00   1.00   0.00   0.00   0.00   0.00   1.00   6.26  400.0   0.00      0      1    395.8   0.00   0.00 0.0806   0.043   0.003   0.000   0.000   0.000   0.000   0.000   0.000   0.000   0.000      0      0      0       0       0   2.026    6.533
   16 318    21    20  10.333     1  0.021     12      0      0     23     14     14      0      0    0.0  0.000      1   0.00   0.00   1.00   0.00   0.00   0.00   0.00   1.00   6.32  400.0   0.00      0      1    395.7   0.00   0.00 0.0817   0.042   0.003   0.000   0.000   0.000   0.000   0.000   0.000   0.000   0.000      0      0      0       0       0   0.759    6.658
   16 319    22    21  10.340     1  0.021     12      0      0     23     14     14      0      0    0.0  0.000      1   0.00   0.00   1.00   0.00   0.00   0.00   0.00   1.00   6.32  400.0   0.00      0      1    395.7   0.00   0.00 0.0830   0.042   0.003   0.000   0.000   0.000   0.000   0.000   0.000   0.000   0.000      0      0      0       0       0   0.878    6.796
   16 320    23    22  10.363     1  0.021     13      0      0     23     14     14      0      0    0.0  0.000      1   0.00   0.00   1.00   0.00   0.00   0.00   0.00   1.00   6.10  400.0   0.00      0      1    395.4   0.00   0.00 0.0873   0.041   0.003   0.000   0.000   0.000   0.000   0.000   0.000   0.000   0.000      0      0      0       0       0   3.006    7.251
   16 321    24    23  10.414     1  0.022     17      0      0     23     19     19      0      0    0.0  0.000      2   0.00   0.00   1.00   0.00   0.00   0.00   0.00   1.00   4.75  400.0   0.00      0      2    394.7   0.00   0.00 0.0975   0.041   0.003   0.000   0.000   0.000   0.000   0.000   0.000   0.000   0.000      0      0      0       0       0   7.150    8.283
   16 322    25    24  10.466     1  0.024     22      0      0     23     24     24      0      0    0.0  0.000      2   0.00   0.00   1.00   0.00   0.00   0.00   0.00   1.00   4.15  400.0   0.00      0      2    394.1   0.00   0.00 0.1083   0.041   0.003   0.000   0.000   0.000   0.000   0.000   0.000   0.000   0.000      0      0      0       0       0   7.550    9.323
   16 323    26    25  10.520     1  0.025     29      0      0     23     31     31      0      0    0.0  0.000      2   0.00   0.00   1.00   0.00   0.00   0.00   0.00   1.00   3.40  400.0   0.00      0      2    393.4   0.00   0.00 0.1200   0.040   0.003   0.000   0.000   0.000   0.000   0.000   0.000   0.000   0.000      0      0      0       0       0   8.150   10.394
   16 324    27    26  10.542     1  0.025     30      0      0     23     33     33      0      0    0.0  0.000      2   0.00   0.00   1.00   0.00   0.00   0.00   0.00   1.00   3.34  400.0   0.00      0      2    393.1   0.00   0.00 0.1251   0.040   0.003   0.000   0.000   0.000   0.000   0.000   0.000   0.000   0.000      0      0      0       0       0   3.600   10.844
   16 325    28    27  10.569     1  0.028     33      0      0     23     36     36      0      0    0.0  0.000      3   0.00   0.00   1.00   0.00   0.00   0.00   0.00   1.00   3.22  400.0   0.00      0      3    392.8   0.00   0.00 0.1316   0.040   0.003   0.000   0.000   0.000   0.000   0.000   0.000   0.000   0.000      0      0      0       0       0   4.550   11.384
   16 326    29    28  10.616     1  0.030     41      0      0     24     45     45      0      0    0.0  0.000      4   0.00   0.00   1.00   0.00   0.00   0.00   0.00   1.00   2.69  400.0   0.00      0      4    392.2   0.00   0.00 0.1436   0.039   0.003   0.000   0.000   0.000   0.000   0.000   0.000   0.000   0.000      0      0      0       0       0   8.350   12.326
   16 327    30    29  10.659     1  0.032     49      0      0     24     54     54      0      0    0.0  0.000      4   0.00   0.00   1.00   0.00   0.00   0.00   0.00   1.00   2.34  400.0   0.00      0      4    391.7   0.00   0.00 0.1551   0.039   0.003   0.000   0.000   0.000   0.000   0.000   0.000   0.000   0.000      0      0      0       0       0   8.050   13.185
   16 328    31    30  10.690     1  0.034     54      0      0     24     60     60      0      0    0.0  0.000      5   0.00   0.00   1.00   0.00   0.00   0.00   0.00   1.00   2.19  400.0   0.00      0      5    391.3   0.00   0.00 0.1631   0.038   0.003   0.000   0.000   0.000   0.000   0.000   0.000   0.000   0.000      0      0      0       0       0   6.100   13.802
   16 329    32    31  10.716     1  0.036     59      0      0     24     64     64      0      0    0.0  0.000      5   0.00   0.00   1.00   0.00   0.00   0.00   0.00   1.00   2.09  400.0   0.00      0      5    391.0   0.00   0.00 0.1702   0.038   0.003   0.000   0.000   0.000   0.000   0.000   0.000   0.000   0.000      0      0      0       0       0   5.400   14.317
   16 330    33    32  10.744     1  0.037     63      0      0     24     68     68      0      0    0.0  0.000      5   0.00   0.00   1.00   0.00   0.00   0.00   0.00   1.00   2.03  400.0   0.00      0      5    390.7   0.00   0.00 0.1785   0.038   0.003   0.000   0.000   0.000   0.000   0.000   0.000   0.000   0.000      0      0      0       0       0   6.250   14.879
   16 331    34    33  10.768     1  0.038     63      0      0     24     69     69      0      0    0.0  0.000      6   0.00   0.00   1.00   0.00   0.00   0.00   0.00   1.00   2.07  400.0   0.00      0      6    390.4   0.00   0.00 0.1862   0.037   0.003   0.000   0.000   0.000   0.000   0.000   0.000   0.000   0.000      0      0      0       0       0   5.800   15.369
   16 332    35    34  10.785     1  0.040     63      0      0     24     70     70      0      0    0.0  0.000      6   0.00   0.00   1.00   0.00   0.00   0.00   0.00   1.00   2.10  400.0   0.00      0      6    390.2   0.00   0.00 0.1917   0.037   0.003   0.000   0.000   0.000   0.000   0.000   0.000   0.000   0.000      0      0      0       0       0   4.178   15.701
   16 333    36    35  10.786     1  0.040     63      0      0     24     70     70      0      0    0.0  0.000      6   0.00   0.00   1.00   0.00   0.00   0.00   0.00   1.00   2.14  400.0   0.00      0      6    390.2   0.00   0.00 0.1921   0.037   0.003   0.000   0.000   0.000   0.000   0.000   0.000   0.000   0.000      0      0      0       0       0   0.316   15.724
   16 334    37    36  10.786     1  0.040     63      0      0     24     70     70      0      0    0.0  0.000      6   0.00   0.00   1.00   0.00   0.00   0.00   0.00   1.00   2.18  400.0   0.00      0      6    390.2   0.00   0.00 0.1921   0.036   0.003   0.000   0.000   0.000   0.000   0.000   0.000   0.000   0.000      0      0      0       0       0   0.032   15.727
   16 335    38    37  10.788     1  0.040     63      0      0     24     70     70      0      0    0.0  0.000      6   0.00   0.00   1.00   0.00   0.00   0.00   0.00   1.00   2.22  400.0   0.00      0      6    390.1   0.00   0.00 0.1928   0.036   0.003   0.000   0.000   0.000   0.000   0.000   0.000   0.000   0.000      0      0      0       0       0   0.522   15.761
   16 336    39    38  10.798     1  0.041     64      0      0     24     70     70      0      0    0.0  0.000      6   0.00   0.00   1.00   0.00   0.00   0.00   0.00   1.00   2.24  400.0   0.00      0      6    390.0   0.00   0.00 0.1971   0.036   0.003   0.000   0.000   0.000   0.000   0.000   0.000   0.000   0.000      0      0      0       0       0   3.260   15.958
   16 337    40    39  10.807     1  0.043     64      0      0     24     71     71      0      0    0.0  0.000      7   0.00   0.00   1.00   0.00   0.00   0.00   0.00   1.00   2.25  400.0   0.00      0      7    389.9   0.00   0.00 0.2014   0.035   0.003   0.000   0.000   0.000   0.000   0.000   0.000   0.000   0.000      0      0      0       0       0   3.259   16.141
   16 338    41    40  10.808     1  0.043     64      0      0     24     71     71      0      0    0.0  0.000      7   0.00   0.00   1.00   0.00   0.00   0.00   0.00   1.00   2.28  400.0   0.00      0      7    389.9   0.00   0.00 0.2019   0.035   0.003   0.000   0.000   0.000   0.000   0.000   0.000   0.000   0.000      0      0      0       0       0   0.433   16.164
   16 339    42    41  10.809     1  0.043     64      0      0     23     71     71      0      0    0.0  0.000      7   0.00   0.00   1.00   0.00   0.00   0.00   0.00   1.00   2.31  400.0   0.00      0      7    389.9   0.00   0.00 0.2022   0.035   0.003   0.000   0.000   0.000   0.000   0.000   0.000   0.000   0.000      0      0      0       0       0   0.194   16.173
   16 340    43    42  10.809     1  0.043     64      0      0     23     71     71      0      0    0.0  0.000      7   0.00   0.00   1.00   0.00   0.00   0.00   0.00   1.00   2.34  400.0   0.00      0      7    389.9   0.00   0.00 0.2022   0.034   0.003   0.000   0.000   0.000   0.000   0.000   0.000   0.000   0.000      0      0      0       0       0   0.052   16.176
   16 341    44    43  10.809     1  0.043     64      0      0     23     71     71      0      0    0.0  0.000      7   0.00   0.00   1.00   0.00   0.00   0.00   0.00   1.00   2.36  400.0   0.00      0      7    389.9   0.00   0.00 0.2026   0.034   0.003   0.000   0.000   0.000   0.000   0.000   0.000   0.000   0.000      0      0      0       0       0   0.260   16.186
   16 342    45    44  10.809     1  0.043     64      0      0     23     71     71      0      0    0.0  0.000      7   0.00   0.00   1.00   0.00   0.00   0.00   0.00   1.00   2.38  400.0   0.00      0      7    389.9   0.00   0.00 0.2027   0.034   0.003   0.000   0.000   0.000   0.000   0.000   0.000   0.000   0.000      0      0      0       0       0   0.086   16.190
   16 343    46    45  10.812     1  0.043     64      0      0     22     71     71      0      0    0.0  0.000      7   0.00   0.00   1.00   0.00   0.00   0.00   0.00   1.00   2.40  400.0   0.00      0      7    389.9   0.00   0.00 0.2043   0.033   0.003   0.000   0.000   0.000   0.000   0.000   0.000   0.000   0.000      0      0      0       0       0   1.377   16.238
   16 344    47    46  10.817     1  0.043     64      0      0     22     71     71      0      0    0.0  0.000      7   0.00   0.00   1.00   0.00   0.00   0.00   0.00   1.00   2.41  400.0   0.00      0      7    389.8   0.00   0.00 0.2084   0.033   0.003   0.000   0.000   0.000   0.000   0.000   0.000   0.000   0.000      0      0      0       0       0   3.362   16.345
   16 345    48    47  10.823     1  0.046     65      0      0     23     73     73      0      0    0.0  0.000      8   0.00   0.00   1.00   0.00   0.00   0.00   0.00   1.00   2.40  400.0   0.00      0      8    389.7   0.00   0.00 0.2132   0.033   0.003   0.000   0.000   0.000   0.000   0.000   0.000   0.000   0.000      0      0      0       0       0   3.977   16.462
   16 346    49    48  10.826     1  0.047     65      0      0     23     74     74      0      0    0.0  0.000      8   0.00   0.00   1.00   0.00   0.00   0.00   0.00   1.00   2.41  400.0   0.00      0      8    389.7   0.00   0.00 0.2158   0.032   0.003   0.000   0.000   0.000   0.000   0.000   0.000   0.000   0.000      0      0      0       0       0   2.160   16.520
   16 347    50    49  10.829     1  0.049     65      0      0     23     74     74      0      0    0.0  0.000      8   0.00   0.00   1.00   0.00   0.00   0.00   0.00   1.00   2.42  400.0   0.00      0      8    389.7   0.00   0.00 0.2193   0.032   0.003   0.000   0.000   0.000   0.000   0.000   0.000   0.000   0.000      0      0      0       0       0   2.837   16.590
   16 348    51    50  10.832     1  0.050     66      0      0     23     75     75      0      0    0.0  0.000      9   0.00   0.00   1.00   0.00   0.00   0.00   0.00   1.00   2.42  400.0   0.00      0      9    389.6   0.00   0.00 0.2221   0.032   0.003   0.000   0.000   0.000   0.000   0.000   0.000   0.000   0.000      0      0      0       0       0   2.394   16.644
   16 349    52    51  10.838     1  0.053     67      0      0     24     76     76      0      0    0.0  0.000      9   0.00   0.00   1.00   0.00   0.00   0.00   0.00   1.00   2.41  400.0   0.00      0      9    389.6   0.00   0.00 0.2283   0.031   0.003   0.000   0.000   0.000   0.000   0.000   0.000   0.000   0.000      0      0      0       0       0   5.110   16.751
   16 350    53    52  10.840     1  0.054     67      0      0     24     77     77      0      0    0.0  0.000     10   0.00   0.00   1.00   0.00   0.00   0.00   0.00   1.00   2.42  400.0   0.00      0     10    389.5   0.00   0.00 0.2314   0.031   0.003   0.000   0.000   0.000   0.000   0.000   0.000   0.000   0.000      0      0      0       0       0   2.500   16.799
   16 351    54    53  10.841     1  0.054     67      0      0     23     77     77      0      0    0.0  0.000     10   0.00   0.00   1.00   0.00   0.00   0.00   0.00   1.00   2.44  400.0   0.00      0     10    389.5   0.00   0.00 0.2322   0.031   0.003   0.000   0.000   0.000   0.000   0.000   0.000   0.000   0.000      0      0      0       0       0   0.666   16.811
   16 352    55    54  10.841     1  0.054     67      0      0     23     77     77      0      0    0.0  0.000     10   0.00   0.00   1.00   0.00   0.00   0.00   0.00   1.00   2.45  400.0   0.00      0     10    389.5   0.00   0.00 0.2331   0.030   0.003   0.000   0.000   0.000   0.000   0.000   0.000   0.000   0.000      0      0      0       0       0   0.752   16.824
   16 353    56    55  10.842     1  0.054     67      0      0     23     77     77      0      0    0.0  0.000     10   0.00   0.00   1.00   0.00   0.00   0.00   0.00   1.00   2.47  400.0   0.00      0     10    389.5   0.00   0.00 0.2345   0.030   0.003   0.000   0.000   0.000   0.000   0.000   0.000   0.000   0.000      0      0      0       0       0   1.157   16.843
   16 354    57    56  10.843     1  0.054     67      0      0     23     77     77      0      0    0.0  0.000     10   0.00   0.00   1.00   0.00   0.00   0.00   0.00   1.00   2.49  400.0   0.00      0     10    389.5   0.00   0.00 0.2359   0.030   0.003   0.000   0.000   0.000   0.000   0.000   0.000   0.000   0.000      0      0      0       0       0   1.207   16.862
   16 355    58    57  10.844     1  0.054     67      0      0     22     77     77      0      0    0.0  0.000     10   0.00   0.00   1.00   0.00   0.00   0.00   0.00   1.00   2.50  400.0   0.00      0     10    389.5   0.00   0.00 0.2368   0.030   0.003   0.000   0.000   0.000   0.000   0.000   0.000   0.000   0.000      0      0      0       0       0   0.712   16.872
   16 356    59    58  10.844     1  0.054     67      0      0     22     77     77      0      0    0.0  0.000     10   0.00   0.00   1.00   0.00   0.00   0.00   0.00   1.00   2.52  400.0   0.00      0     10    389.5   0.00   0.00 0.2371   0.029   0.003   0.000   0.000   0.000   0.000   0.000   0.000   0.000   0.000      0      0      0       0       0   0.236   16.876
   16 357    60    59  10.844     1  0.054     67      0      0     22     77     77      0      0    0.0  0.000     10   0.00   0.00   1.00   0.00   0.00   0.00   0.00   1.00   2.53  400.0   0.00      0     10    389.5   0.00   0.00 0.2373   0.029   0.003   0.000   0.000   0.000   0.000   0.000   0.000   0.000   0.000      0      0      0       0       0   0.197   16.879
   16 358    61    60  10.845     1  0.054     67      0      0     22     77     77      0      0    0.0  0.000     10   0.00   0.00   1.00   0.00   0.00   0.00   0.00   1.00   2.54  400.0   0.00      0     10    389.5   0.00   0.00 0.2387   0.029   0.003   0.000   0.000   0.000   0.000   0.000   0.000   0.000   0.000      0      0      0       0       0   1.119   16.896
   16 359    62    61  10.848     1  0.055     67      0      0     22     78     78      0      0    0.0  0.000     10   0.00   0.00   1.00   0.00   0.00   0.00   0.00   1.00   2.54  400.0   0.00      0     10    389.4   0.00   0.00 0.2430   0.028   0.002   0.000   0.000   0.000   0.000   0.000   0.000   0.000   0.000      0      0      0       0       0   3.550   16.953
   16 360    63    62  10.853     1  0.058     68      0      0     22     79     79      0      0    0.0  0.000     11   0.00   0.00   1.00   0.00   0.00   0.00   0.00   1.00   2.54  400.0   0.00      0     11    389.4   0.00   0.00 0.2508   0.028   0.002   0.000   0.000   0.000   0.000   0.000   0.000   0.000   0.000      0      0      0       0       0   6.450   17.060
   16 361    64    63  10.859     1  0.061     69      0      0     22     80     80      0      0    0.0  0.000     11   0.00   0.00   1.00   0.00   0.00   0.00   0.00   1.00   2.52  400.0   0.00      0     11    389.3   0.00   0.00 0.2585   0.028   0.002   0.000   0.000   0.000   0.000   0.000   0.000   0.000   0.000      0      0      0       0       0   6.400   17.173
   16 362    65    64  10.861     1  0.063     69      0      0     23     81     81      0      0    0.0  0.000     12   0.00   0.00   1.00   0.00   0.00   0.00   0.00   1.00   2.52  400.0   0.00      0     12    389.3   0.00   0.00 0.2611   0.028   0.002   0.000   0.000   0.000   0.000   0.000   0.000   0.000   0.000      0      0      0       0       0   2.100   17.213
   16 363    66    65  10.863     1  0.064     70      0      0     23     82     82      0      0    0.0  0.000     12   0.00   0.00   1.00   0.00   0.00   0.00   0.00   1.00   2.52  400.0   0.00      0     12    389.2   0.00   0.00 0.2643   0.027   0.002   0.000   0.000   0.000   0.000   0.000   0.000   0.000   0.000      0      0      0       0       0   2.668   17.267
   16 364    67    66  10.865     1  0.065     70      0      0     23     82     82      0      0    0.0  0.000     12   0.00   0.00   1.00   0.00   0.00   0.00   0.00   1.00   2.54  400.0   0.00      0     12    389.2   0.00   0.00 0.2663   0.027   0.002   0.000   0.000   0.000   0.000   0.000   0.000   0.000   0.000      0      0      0       0       0   1.661   17.304
   16 365    68    67  10.866     1  0.065     70      0      0     23     82     82      0      0    0.0  0.000     12   0.00   0.00   1.00   0.00   0.00   0.00   0.00   1.00   2.56  400.0   0.00      0     12    389.2   0.00   0.00 0.2669   0.027   0.002   0.000   0.000   0.000   0.000   0.000   0.000   0.000   0.000      0      0      0       0       0   0.526   17.316
   16 366    69    68  10.866     1  0.065     70      0      0     22     82     82      0      0    0.0  0.000     12   0.00   0.00   1.00   0.00   0.00   0.00   0.00   1.00   2.57  400.0   0.00      0     12    389.2   0.00   0.00 0.2669   0.026   0.002   0.000   0.000   0.000   0.000   0.000   0.000   0.000   0.000      0      0      0       0       0   0.000   17.316
   17 001    70    69  10.866     1  0.065     70      0      0     22     82     82      0      0    0.0  0.000     12   0.00   0.00   1.00   0.00   0.00   0.00   0.00   1.00   2.59  400.0   0.00      0     12    389.2   0.00   0.00 0.2669   0.026   0.002   0.000   0.000   0.000   0.000   0.000   0.000   0.000   0.000      0      0      0       0       0   0.000   17.316
   17 002    71    70  10.866     1  0.065     70      0      0     22     82     82      0      0    0.0  0.000     12   0.00   0.00   1.00   0.00   0.00   0.00   0.00   1.00   2.61  400.0   0.00      0     12    389.2   0.00   0.00 0.2671   0.026   0.002   0.000   0.000   0.000   0.000   0.000   0.000   0.000   0.000      0      0      0       0       0   0.157   17.321
   17 003    72    71  10.867     1  0.065     70      0      0     22     82     82      0      0    0.0  0.000     12   0.00   0.00   1.00   0.00   0.00   0.00   0.00   1.00   2.62  400.0   0.00      0     12    389.2   0.00   0.00 0.2679   0.026   0.002   0.000   0.000   0.000   0.000   0.000   0.000   0.000   0.000      0      0      0       0       0   0.650   17.342
   17 004    73    72  10.869     1  0.065     70      0      0     21     82     82      0      0    0.0  0.000     12   0.00   0.00   1.00   0.00   0.00   0.00   0.00   1.00   2.64  400.0   0.00      0     12    389.2   0.00   0.00 0.2690   0.025   0.002   0.000   0.000   0.000   0.000   0.000   0.000   0.000   0.000      0      0      0       0       0   0.887   17.372
   17 005    74    73  10.869     1  0.065     70      0      0     21     82     82      0      0    0.0  0.000     12   0.00   0.00   1.00   0.00   0.00   0.00   0.00   1.00   2.66  400.0   0.00      0     12    389.2   0.00   0.00 0.2693   0.025   0.002   0.000   0.000   0.000   0.000   0.000   0.000   0.000   0.000      0      0      0       0       0   0.276   17.383
   17 006    75    74  10.869     1  0.065     70      0      0     21     82     82      0      0    0.0  0.000     12   0.00   0.00   1.00   0.00   0.00   0.00   0.00   1.00   2.67  400.0   0.00      0     12    389.2   0.00   0.00 0.2693   0.025   0.002   0.000   0.000   0.000   0.000   0.000   0.000   0.000   0.000      0      0      0       0       0   0.000   17.383
   17 007    76    75  10.869     1  0.065     70      0      0     21     82     82      0      0    0.0  0.000     12   0.00   0.00   1.00   0.00   0.00   0.00   0.00   1.00   2.69  400.0   0.00      0     12    389.2   0.00   0.00 0.2693   0.025   0.002   0.000   0.000   0.000   0.000   0.000   0.000   0.000   0.000      0      0      0       0       0   0.000   17.383
   17 008    77    76  10.869     1  0.065     70      0      0     21     82     82      0      0    0.0  0.000     12   0.00   0.00   1.00   0.00   0.00   0.00   0.00   1.00   2.70  400.0   0.00      0     12    389.2   0.00   0.00 0.2694   0.024   0.002   0.000   0.000   0.000   0.000   0.000   0.000   0.000   0.000      0      0      0       0       0   0.064   17.386
   17 009    78    77  10.870     1  0.065     70      0      0     20     82     82      0      0    0.0  0.000     12   0.00   0.00   1.00   0.00   0.00   0.00   0.00   1.00   2.72  400.0   0.00      0     12    389.2   0.00   0.00 0.2697   0.024   0.002   0.000   0.000   0.000   0.000   0.000   0.000   0.000   0.000      0      0      0       0       0   0.286   17.401
   17 010    79    78  10.870     1  0.065     70      0      0     20     82     82      0      0    0.0  0.000     12   0.00   0.00   1.00   0.00   0.00   0.00   0.00   1.00   2.73  400.0   0.00      0     12    389.2   0.00   0.00 0.2697   0.024   0.002   0.000   0.000   0.000   0.000   0.000   0.000   0.000   0.000      0      0      0       0       0   0.000   17.401
   17 011    80    79  10.872     1  0.065     70      0      0     20     82     82      0      0    0.0  0.000     12   0.00   0.00   1.00   0.00   0.00   0.00   0.00   1.00   2.75  400.0   0.00      0     12    389.1   0.00   0.00 0.2704   0.024   0.002   0.000   0.000   0.000   0.000   0.000   0.000   0.000   0.000      0      0      0       0       0   0.511   17.431
   17 012    81    80  10.880     1  0.066     70      0      0     20     83     83      0      0    0.0  0.000     13   0.00   0.00   1.00   0.00   0.00   0.00   0.00   1.00   2.74  400.0   0.00      0     13    389.0   0.00   0.00 0.2735   0.023   0.002   0.000   0.000   0.000   0.000   0.000   0.000   0.000   0.000      0      0      0       0       0   2.600   17.600
   17 013    82    81  10.888     1  0.068     70      0      0     20     84     84      0      0    0.0  0.000     13   0.00   0.00   1.00   0.00   0.00   0.00   0.00   1.00   2.74  400.0   0.00      0     13    388.9   0.00   0.00 0.2764   0.023   0.002   0.000   0.000   0.000   0.000   0.000   0.000   0.000   0.000      0      0      0       0       0   2.414   17.767
   17 014    83    82  10.890     1  0.068     70      0      0     20     84     84      0      0    0.0  0.000     13   0.00   0.00   1.00   0.00   0.00   0.00   0.00   1.00   2.76  400.0   0.00      0     13    388.9   0.00   0.00 0.2768   0.023   0.002   0.000   0.000   0.000   0.000   0.000   0.000   0.000   0.000      0      0      0       0       0   0.329   17.792
   17 015    84    83  10.890     1  0.068     70      0      0     20     84     84      0      0    0.0  0.000     13   0.00   0.00   1.00   0.00   0.00   0.00   0.00   1.00   2.77  400.0   0.00      0     13    388.9   0.00   0.00 0.2771   0.023   0.002   0.000   0.000   0.000   0.000   0.000   0.000   0.000   0.000      0      0      0       0       0   0.214   17.809
   17 016    85    84  10.891     1  0.068     70      0      0     20     84     84      0      0    0.0  0.000     13   0.00   0.00   1.00   0.00   0.00   0.00   0.00   1.00   2.78  400.0   0.00      0     13    388.9   0.00   0.00 0.2771   0.023   0.002   0.000   0.000   0.000   0.000   0.000   0.000   0.000   0.000      0      0      0       0       0   0.024   17.811
   17 017    86    85  10.891     1  0.068     70      0      0     19     84     84      0      0    0.0  0.000     13   0.00   0.00   1.00   0.00   0.00   0.00   0.00   1.00   2.80  400.0   0.00      0     13    388.9   0.00   0.00 0.2771   0.022   0.002   0.000   0.000   0.000   0.000   0.000   0.000   0.000   0.000      0      0      0       0       0   0.000   17.811
   17 018    87    86  10.891     1  0.068     70      0      0     19     84     84      0      0    0.0  0.000     13   0.00   0.00   1.00   0.00   0.00   0.00   0.00   1.00   2.81  400.0   0.00      0     13    388.9   0.00   0.00 0.2771   0.022   0.002   0.000   0.000   0.000   0.000   0.000   0.000   0.000   0.000      0      0      0       0       0   0.000   17.811
   17 019    88    87  10.891     1  0.068     70      0      0     19     84     84      0      0    0.0  0.000     13   0.00   0.00   1.00   0.00   0.00   0.00   0.00   1.00   2.82  400.0   0.00      0     13    388.9   0.00   0.00 0.2771   0.022   0.002   0.000   0.000   0.000   0.000   0.000   0.000   0.000   0.000      0      0      0       0       0   0.000   17.811
   17 020    89    88  10.891     1  0.068     70      0      0     19     84     84      0      0    0.0  0.000     13   0.00   0.00   1.00   0.00   0.00   0.00   0.00   1.00   2.83  400.0   0.00      0     13    388.9   0.00   0.00 0.2771   0.022   0.002   0.000   0.000   0.000   0.000   0.000   0.000   0.000   0.000      0      0      0       0       0   0.004   17.811
   17 021    90    89  10.891     1  0.068     70      0      0     19     84     84      0      0    0.0  0.000     13   0.00   0.00   1.00   0.00   0.00   0.00   0.00   1.00   2.85  400.0   0.00      0     13    388.9   0.00   0.00 0.2771   0.021   0.002   0.000   0.000   0.000   0.000   0.000   0.000   0.000   0.000      0      0      0       0       0   0.000   17.811
   17 022    91    90  10.891     1  0.068     70      0      0     18     84     84      0      0    0.0  0.000     13   0.00   0.00   1.00   0.00   0.00   0.00   0.00   1.00   2.86  400.0   0.00      0     13    388.9   0.00   0.00 0.2771   0.021   0.002   0.000   0.000   0.000   0.000   0.000   0.000   0.000   0.000      0      0      0       0       0   0.000   17.811
   17 023    92    91  10.891     1  0.068     70      0      0     18     84     84      0      0    0.0  0.000     13   0.00   0.00   1.00   0.00   0.00   0.00   0.00   1.00   2.87  400.0   0.00      0     13    388.9   0.00   0.00 0.2771   0.021   0.002   0.000   0.000   0.000   0.000   0.000   0.000   0.000   0.000      0      0      0       0       0   0.000   17.811
   17 024    93    92  10.891     1  0.068     70      0      0     18     84     84      0      0    0.0  0.000     13   0.00   0.00   1.00   0.00   0.00   0.00   0.00   1.00   2.88  400.0   0.00      0     13    388.9   0.00   0.00 0.2771   0.021   0.002   0.000   0.000   0.000   0.000   0.000   0.000   0.000   0.000      0      0      0       0       0   0.000   17.811
   17 025    94    93  10.891     1  0.068     70      0      0     18     84     84      0      0    0.0  0.000     13   0.00   0.00   1.00   0.00   0.00   0.00   0.00   1.00   2.89  400.0   0.00      0     13    388.9   0.00   0.00 0.2771   0.021   0.002   0.000   0.000   0.000   0.000   0.000   0.000   0.000   0.000      0      0      0       0       0   0.000   17.811
   17 026    95    94  10.891     1  0.068     70      0      0     18     84     84      0      0    0.0  0.000     13   0.00   0.00   1.00   0.00   0.00   0.00   0.00   1.00   2.91  400.0   0.00      0     13    388.9   0.00   0.00 0.2772   0.020   0.002   0.000   0.000   0.000   0.000   0.000   0.000   0.000   0.000      0      0      0       0       0   0.056   17.819
   17 027    96    95  10.891     1  0.068     70      0      0     18     84     84      0      0    0.0  0.000     13   0.00   0.00   1.00   0.00   0.00   0.00   0.00   1.00   2.92  400.0   0.00      0     13    388.9   0.00   0.00 0.2772   0.020   0.002   0.000   0.000   0.000   0.000   0.000   0.000   0.000   0.000      0      0      0       0       0   0.001   17.819
   17 028    97    96  10.891     1  0.068     70      0      0     17     84     84      0      0    0.0  0.000     13   0.00   0.00   1.00   0.00   0.00   0.00   0.00   1.00   2.93  400.0   0.00      0     13    388.9   0.00   0.00 0.2772   0.020   0.002   0.000   0.000   0.000   0.000   0.000   0.000   0.000   0.000      0      0      0       0       0   0.020   17.823
   17 029    98    97  10.893     1  0.068     70      0      0     17     84     84      0      0    0.0  0.000     13   0.00   0.00   1.00   0.00   0.00   0.00   0.00   1.00   2.94  400.0   0.00      0     13    388.9   0.00   0.00 0.2774   0.020   0.002   0.000   0.000   0.000   0.000   0.000   0.000   0.000   0.000      0      0      0       0       0   0.171   17.851
   17 030    99    98  10.894     1  0.068     70      0      0     17     84     84      0      0    0.0  0.000     13   0.00   0.00   1.00   0.00   0.00   0.00   0.00   1.00   2.95  400.0   0.00      0     13    388.9   0.00   0.00 0.2776   0.020   0.002   0.000   0.000   0.000   0.000   0.000   0.000   0.000   0.000      0      0      0       0       0   0.167   17.879
   17 031   100    99  10.914     1  0.071     71      0      0     18     86     86      0      0    0.0  0.000     14   0.00   0.00   1.00   0.00   0.00   0.00   0.00   1.00   2.92  400.0   0.00      0     14    388.6   0.00   0.00 0.2803   0.019   0.002   0.000   0.000   0.000   0.000   0.000   0.000   0.000   0.000      0      0      0       0       0   2.250   18.281
   17 032   101   100  10.934     1  0.073     72      0      0     18     87     87      0      0    0.0  0.000     15   0.00   0.00   1.00   0.00   0.00   0.00   0.00   1.00   2.91  400.0   0.00      0     15    388.4   0.00   0.00 0.2829   0.019   0.002   0.000   0.000   0.000   0.000   0.000   0.000   0.000   0.000      0      0      0       0       0   2.129   18.677
   17 033   102   101  10.965     1  0.077     73      0      0     19     89     89      0      0    0.0  0.000     16   0.00   0.00   1.00   0.00   0.00   0.00   0.00   1.00   2.88  400.0   0.00      0     16    388.0   0.00   0.00 0.2868   0.019   0.002   0.000   0.000   0.000   0.000   0.000   0.000   0.000   0.000      0      0      0       0       0   3.249   19.304
   17 034   103   102  10.986     1  0.079     73      0      0     19     90     90      0      0    0.0  0.000     16   0.00   0.00   1.00   0.00   0.00   0.00   0.00   1.00   2.88  400.0   0.00      0     16    387.8   0.00   0.00 0.2893   0.019   0.002   0.000   0.000   0.000   0.000   0.000   0.000   0.000   0.000      0      0      0       0       0   2.044   19.714
   17 035   104   103  11.027     1  0.085     75      0      0     20     93     93      0      0    0.0  0.000     18   0.00   0.00   1.00   0.00   0.00   0.00   0.00   1.00   4.87  400.0   0.00      0     18    387.3   0.00   0.00 0.2941   0.019   0.002   0.000   0.000   0.000   0.000   0.000   0.000   0.000   0.000      0      0      0       0       0   3.957   20.537
   17 036   105   104  11.076     1  0.092     77      0      0     22     97     97      0      0    0.0  0.000     20   0.00   0.00   1.00   0.00   0.00   0.00   0.00   1.00   6.06  400.0   0.00      0     20    386.7   0.00   0.00 0.2996   0.019   0.002   0.000   0.000   0.000   0.000   0.000   0.000   0.000   0.000      0      0      0       0       0   4.567   21.522
   17 037   106   105  11.099     1  0.096     78      0      0     22     98     98      0      0    0.0  0.000     20   0.00   0.00   1.00   0.00   0.00   0.00   0.00   1.00   6.15  400.0   0.00      0     20    386.5   0.00   0.00 0.3019   0.019   0.002   0.000   0.000   0.000   0.000   0.000   0.000   0.000   0.000      0      0      0       0       0   2.050   21.979
   17 038   107   106  11.144     1  0.102     79      0      0     24    102    102      0      0    0.0  0.000     22   0.00   0.00   1.00   0.00   0.00   0.00   0.00   1.00   6.09  400.0   0.00      0     22    385.9   0.00   0.00 0.3062   0.019   0.002   0.000   0.000   0.000   0.000   0.000   0.000   0.000   0.000      0      0      0       0       0   3.910   22.881
   17 039   108   107  11.158     1  0.102     79      0      0     23    102    102      0      0    0.0  0.000     22   0.00   0.00   1.00   0.00   0.00   0.00   0.00   1.00   6.21  400.0   0.00      0     22    385.8   0.00   0.00 0.3075   0.019   0.002   0.000   0.000   0.000   0.000   0.000   0.000   0.000   0.000      0      0      0       0       0   1.155   23.157
   17 040   109   108  11.159     1  0.102     79      0      0     23    102    102      0      0    0.0  0.000     22   0.00   0.00   1.00   0.00   0.00   0.00   0.00   1.00   6.21  400.0   0.00      0     22    385.8   0.00   0.00 0.3075   0.019   0.002   0.000   0.000   0.000   0.000   0.000   0.000   0.000   0.000      0      0      0       0       0   0.068   23.174
   17 041   110   109  11.164     1  0.102     79      0      0     23    102    102      0      0    0.0  0.000     22   0.00   0.00   1.00   0.00   0.00   0.00   0.00   1.00   6.21  400.0   0.00      0     22    385.7   0.00   0.00 0.3080   0.018   0.002   0.000   0.000   0.000   0.000   0.000   0.000   0.000   0.000      0      0      0       0       0   0.443   23.286
   17 042   111   110  11.183     1  0.102     79      0      0     23    102    102      0      0    0.0  0.000     22   0.00   0.00   1.00   0.00   0.00   0.00   0.00   1.00   6.21  400.0   0.00      0     22    385.5   0.00   0.00 0.3096   0.018   0.002   0.000   0.000   0.000   0.000   0.000   0.000   0.000   0.000      0      0      0       0       0   1.425   23.660
   17 043   112   111  11.190     1  0.102     79      0      0     22    102    102      0      0    0.0  0.000     22   0.00   0.00   1.00   0.00   0.00   0.00   0.00   1.00   6.21  400.0   0.00      0     22    385.4   0.00   0.00 0.3102   0.018   0.002   0.000   0.000   0.000   0.000   0.000   0.000   0.000   0.000      0      0      0       0       0   0.527   23.802
   17 044   113   112  11.227     1  0.106     80      0      0     24    104    104      0      0    0.0  0.000     23   0.00   0.00   1.00   0.00   0.00   0.00   0.00   1.00   6.13  400.0   0.00      0     23    385.0   0.00   0.00 0.3131   0.018   0.002   0.000   0.000   0.000   0.000   0.000   0.000   0.000   0.000      0      0      0       0       0   2.648   24.538
   17 045   114   113  11.270     1  0.107     80      0      0     23    104    104      0      0    0.0  0.000     23   0.00   0.00   1.00   0.00   0.00   0.00   0.00   1.00   6.14  400.0   0.00      0     23    384.5   0.00   0.00 0.3164   0.018   0.002   0.000   0.000   0.000   0.000   0.000   0.000   0.000   0.000      0      0      0       0       0   3.004   25.398
   17 046   115   114  11.330     1  0.107     81      0      0     23    104    104      0      0    0.0  0.000     23   0.00   0.00   1.00   0.00   0.00   0.00   0.00   1.00   6.14  400.0   0.00      0     23    383.8   0.00   0.00 0.3209   0.018   0.002   0.000   0.000   0.000   0.000   0.000   0.000   0.000   0.000      0      0      0       0       0   4.109   26.606
   17 047   116   115  11.430     1  0.124     85      0      0     27    113    113      0      0    0.0  0.000     28   0.00   0.00   1.00   0.00   0.00   0.00   0.00   1.00   5.86  400.0   0.00      0     28    382.7   0.00   0.00 0.3282   0.017   0.002   0.000   0.000   0.000   0.000   0.000   0.000   0.000   0.000      0      0      0       0       0   6.624   28.608
   17 048   117   116  11.470     1  0.130     87      0      0     28    116    116      0      0    0.0  0.000     29   0.00   0.00   1.00   0.00   0.00   0.00   0.00   1.00   6.06  400.0   0.00      0     29    382.2   0.00   0.00 0.3310   0.018   0.002   0.000   0.000   0.000   0.000   0.000   0.000   0.000   0.000      0      0      0       0       0   2.550   29.400
   17 049   118   117  11.521     1  0.136     88      0      0     30    120    120      0      0    0.0  0.000     31   0.00   0.00   1.00   0.00   0.00   0.00   0.00   1.00   6.05  400.0   0.00      0     31    381.7   0.00   0.00 0.3345   0.018   0.002   0.000   0.000   0.000   0.000   0.000   0.000   0.000   0.000      0      0      0       0       0   3.195   30.417
   17 050   119   118  11.561     1  0.139     89      0      0     31    121    121      0      0    0.0  0.000     32   0.00   0.00   1.00   0.00   0.00   0.00   0.00   1.00   6.11  400.0   0.00      0     32    381.2   0.00   0.00 0.3372   0.018   0.002   0.000   0.000   0.000   0.000   0.000   0.000   0.000   0.000      0      0      0       0       0   2.474   31.226
   17 051   120   119  11.651     1  0.153     93      0      0     34    128    128      0      0    0.0  0.000     35   0.00   0.00   1.00   0.00   0.00   0.00   0.00   1.00   5.91  400.0   0.00      0     35    380.2   0.00   0.00 0.3431   0.018   0.002   0.000   0.000   0.000   0.000   0.000   0.000   0.000   0.000      0      0      0       0       0   5.350   33.017
   17 052   121   120  11.780     1  0.162     95      0      0     35    133    133      0      0    0.0  0.000     38   0.00   0.00   1.00   0.00   0.00   0.00   0.00   1.00   5.98  400.0   0.00      0     38    378.8   0.00   0.00 0.3514   0.018   0.002   0.000   0.000   0.000   0.000   0.000   0.000   0.000   0.000      0      0      0       0       0   7.500   35.590
   17 053   122   121  11.945     1  0.173     98      0      0     38    139    139      0      0    0.0  0.000     41   0.00   0.00   1.00   0.00   0.00   0.00   0.00   1.00   5.92  400.0   0.00      0     41    377.0   0.00   0.00 0.3617   0.018   0.002   0.000   0.000   0.000   0.000   0.000   0.000   0.000   0.000      0      0      0       0       0   9.400   38.892
   17 054   123   122  12.152     1  0.200    105      0      0     43    153    153      0      0    0.0  0.000     48   0.00   0.00   1.00   0.07   0.00   0.00   0.00   1.00   5.68  400.0   0.00      0     48    374.8   0.00   0.00 0.3744   0.018   0.002   0.001   0.000   0.000   0.000   0.000   0.000   0.000   0.000      0      0      0       0       0  11.550   43.045
   17 055   124   123  12.260     1  0.219    110      0      0     47    164    164      0      0    0.0  0.000     53   0.00   0.00   1.00   0.15   0.00   0.00   0.00   1.00   5.79  400.0   0.00      0     53    373.7   0.00   0.00 0.3809   0.019   0.002   0.001   0.000   0.000   0.000   0.000   0.000   0.000   0.000      0      0      0       0       0   5.866   45.202
   17 056   125   124  12.330     1  0.229    113      0      0     52    169    169      0      0    0.0  0.000     56   0.00   0.00   1.00   0.10   0.00   0.00   0.00   1.00   5.88  400.0   0.00      0     56    373.0   0.00   0.00 0.3849   0.019   0.002   0.001   0.000   0.000   0.000   0.000   0.000   0.000   0.000      0      0      0       0       0   3.695   46.591
   17 057   126   125  12.435     1  0.253    119      0      0     57    182    182      0      0    0.0  0.000     62   0.00   0.00   1.00   0.07   0.00   0.00   0.00   1.00   5.64  400.0   0.00      0     62    371.9   0.00   0.00 0.3909   0.019   0.002   0.001   0.001   0.000   0.000   0.000   0.000   0.000   0.000      0      0      0       0       0   5.466   48.691
   17 058   127   126  12.560     1  0.289    129      0      0     67    201    201      0      0    0.0  0.000     72   0.00   0.00   1.00   0.15   0.00   0.00   0.00   1.00   5.28  400.0   0.00      0     72    370.6   0.00   0.00 0.3980   0.019   0.002   0.001   0.001   0.001   0.000   0.000   0.000   0.000   0.000      0      0      0       0       0   6.374   51.193
   17 059   128   127  12.627     1  0.301    132      0      0     69    208    208      0      0    0.0  0.000     75   0.00   0.00   1.00   0.27   0.00   0.00   0.00   1.00   5.88  400.0   0.00      0     75    370.0   0.00   0.00 0.4016   0.020   0.003   0.001   0.001   0.001   0.000   0.000   0.000   0.000   0.000      0      0      0       0       0   3.350   52.535
   17 060   129   128  12.725     1  0.326    139      0      0     75    222    222      0      0    0.0  0.000     82   0.00   0.00   1.00   0.05   0.00   0.00   0.00   1.00   5.71  400.0   0.00      0     82    369.0   0.00   0.00 0.4064   0.020   0.003   0.001   0.001   0.001   0.000   0.000   0.000   0.000   0.000      0      0      0       0       0   4.800   54.497
   17 061   130   129  12.842     1  0.356    147      0      0     90    238    238      0      0    0.0  0.000     90   0.00   0.00   1.00   0.10   0.00   0.00   0.00   1.00   5.67  400.0   0.00      0     90    367.8   0.00   0.00 0.4120   0.020   0.003   0.001   0.001   0.001   0.000   0.000   0.000   0.000   0.000      0      0      0       0       0   5.617   56.840
   17 062   131   130  12.946     1  0.377    153      0      0    101    249    249      0      0    0.0  0.000     96   0.00   0.00   1.00   0.11   0.00   0.00   0.00   1.00   5.76  400.0   0.00      0     96    366.8   0.00   0.00 0.4168   0.021   0.004   0.001   0.001   0.001   0.000   0.000   0.000   0.000   0.000      0      0      0       0       0   4.904   58.926
   17 063   132   131  13.158     1  0.433    168      0      0    113    280    280      0      0    0.0  0.000    111   0.00   0.00   1.00   0.07   0.00   0.00   0.00   1.00   5.42  400.0   0.00      0    111    364.8   0.00   0.00 0.4265   0.022   0.004   0.001   0.001   0.001   0.000   0.000   0.000   0.000   0.000      0      0      0       0       0   9.750   63.152
   17 064   133   132  13.289     1  0.473    179      0      0    126    302    302      0      0    0.0  0.000    122   0.00   0.00   1.00   0.18   0.00   0.00   0.00   1.00   5.57  400.0   0.00      0    122    363.6   0.00   0.00 0.4324   0.023   0.005   0.002   0.001   0.001   0.000   0.000   0.000   0.000   0.000      0      0      0       0       0   5.950   65.780
   17 065   134   133  13.419     1  0.513    190      0      0    135    324    324      0      0    0.0  0.000    133   0.00   0.00   1.00   0.12   0.00   0.00   0.00   1.00   5.58  400.0   0.00      0    133    362.4   0.00   0.00 0.4381   0.023   0.005   0.002   0.001   0.001   0.000   0.000   0.000   0.000   0.000      0      0      0       0       0   5.800   68.389
   17 066   135   134  13.502     1  0.529    195      0      0    143    333    333      0      0    0.0  0.000    138   0.00   0.00   1.00   0.11   0.00   0.00   0.00   1.00   5.78  400.0   0.00      0    138    361.6   0.00   0.00 0.4417   0.024   0.005   0.002   0.001   0.001   0.000   0.000   0.000   0.000   0.000      0      0      0       0       0   3.600   70.037
   17 067   136   135  13.596     1  0.550    201      0      0    153    344    344      0      0    0.0  0.000    143   0.00   0.00   1.00   0.04   0.00   0.00   0.00   1.00   5.73  400.0   0.00      0    143    360.7   0.00   0.00 0.4457   0.024   0.006   0.002   0.001   0.001   0.000   0.000   0.000   0.000   0.000      0      0      0       0       0   4.050   71.924
   17 068   137   136  13.793     1  0.580    209      0      0    159    361    361      0      0    0.0  0.000    152   0.00   0.00   1.00   0.05   0.00   0.00   0.00   1.00   5.64  400.0   0.00      0    152    359.0   0.00   0.00 0.4539   0.025   0.006   0.002   0.001   0.002   0.000   0.000   0.000   0.000   0.000      0      0      0       0       0   8.300   75.859
   17 069   138   137  13.905     1  0.601    215      0      0    169    373    373      0      0    0.0  0.000    158   0.00   0.00   1.00   0.07   0.00   0.00   0.00   1.00   5.70  400.0   0.00      0    158    358.0   0.00   0.00 0.4585   0.025   0.006   0.003   0.001   0.002   0.000   0.000   0.000   0.000   0.000      0      0      0       0       0   4.627   78.090
   17 070   139   138  14.015     1  0.620    220      0      0    178    383    383      0      0    0.0  0.000    163   0.00   0.00   1.00   0.05   0.00   0.00   0.00   1.00   5.93  400.0   0.00      0    163    357.0   0.00   0.00 0.4629   0.025   0.007   0.003   0.001   0.002   0.000   0.000   0.000   0.000   0.000      0      0      0       0       0   4.515   80.303
   17 071   140   139  14.132     1  0.648    228      0      0    192    399    399      0      0    0.0  0.000    171   0.00   0.00   1.00   0.00   0.00   0.00   0.00   1.00   5.93  400.0   0.00      0    171    356.0   0.00   0.00 0.4676   0.025   0.007   0.003   0.002   0.002   0.001   0.000   0.000   0.000   0.000      0      0      0       0       0   4.700   82.644
   17 072   141   140  14.272     1  0.680    237      0      0    208    417    417      0      0    0.0  0.000    180   0.00   0.00   1.00   0.00   0.00   0.00   0.00   1.00   5.91  400.0   0.00      0    180    354.8   0.00   0.00 0.4730   0.025   0.007   0.004   0.002   0.002   0.001   0.000   0.000   0.000   0.000      0      0      0       0       0   5.506   85.430
   17 073   142   141  14.428     1  0.719    248      0      0    228    439    439      0      0    0.0  0.000    191   0.00   0.00   1.00   0.00   0.00   0.00   0.00   1.00   5.85  400.0   0.00      0    191    353.5   0.00   0.00 0.4791   0.026   0.008   0.004   0.002   0.002   0.001   0.000   0.000   0.000   0.000      0      0      0       0       0   6.106   88.569
   17 074   143   142  14.594     1  0.769    262      0      0    254    468    468      0      0    0.0  0.000    205   0.00   0.00   1.00   0.00   0.00   0.00   0.00   1.00   5.70  400.0   0.00      0    205    352.1   0.00   0.00 0.4854   0.026   0.008   0.005   0.002   0.002   0.001   0.000   0.000   0.000   0.000      0      0      0       0       0   6.350   91.883
   17 075   144   143  14.811     1  0.841    283      0      0    293    509    509      0      0    0.0  0.000    226   0.00   0.00   1.00   0.02   0.00   0.00   0.00   1.00   5.45  400.0   0.00      0    226    350.4   0.00   0.00 0.4935   0.026   0.009   0.006   0.003   0.003   0.002   0.000   0.000   0.000   0.000      0      0      0       0       0   8.188   96.220
   17 076   145   144  15.095     1  0.950    314      0      0    335    572    572      0      0    0.0  0.000    257   0.00   0.00   1.00   0.09   0.00   0.00   0.00   1.00   5.06  400.0   0.00      0    257    348.1   0.00   0.00 0.5039   0.027   0.010   0.007   0.004   0.003   0.002   0.000   0.000   0.000   0.000      0      0      0       0       0  10.569  101.902
   17 077   146   145  15.305     1  0.995    327      0      0    343    598    598      0      0    0.0  0.000    270   0.00   0.00   1.00   0.21   0.00   0.00   0.00   1.00   5.10  400.0   0.00      0    270    346.5   0.00   0.00 0.5111   0.029   0.011   0.008   0.005   0.004   0.003   0.000   0.000   0.000   0.000      0      0      0       0       0   7.700  106.100
   17 078   147   146  15.599     1  1.081    352      0      0    361    647    647      0      0    0.0  0.000    295   0.00   0.00   1.00   0.19   0.00   0.00   0.00   1.00   4.93  400.0   0.00      0    295    344.3   0.00   0.00 0.5209   0.029   0.011   0.008   0.005   0.004   0.003   0.000   0.000   0.000   0.000      0      0      0       0       0  10.650  111.990
   17 079   148   147  15.887     1  1.174    379      0      0    401    702    702      0      0    0.0  0.000    322   0.00   0.00   1.00   0.23   0.00   0.00   0.00   1.00   4.72  400.0   0.00      0    322    342.2   0.00   0.00 0.5304   0.030   0.011   0.009   0.005   0.004   0.004   0.000   0.000   0.000   0.000      0      0      0       0       0  10.250  117.737
   17 080   149   148  16.168     1  1.258    404      0      0    445    751    751      0      0    0.0  0.000    347   0.00   0.00   1.00   0.29   0.00   0.00   0.00   1.00   4.56  400.0   0.00      0    347    340.2   0.00   0.00 0.5395   0.030   0.012   0.010   0.006   0.005   0.004   0.001   0.000   0.000   0.000      0      0      0       0       0   9.900  123.363
   17 081   150   149  16.347     1  1.307    419      0      0    456    780    780      0      0    0.0  0.000    361   0.00   0.00   1.00   0.34   0.00   0.00   0.00   1.00   4.55  400.0   0.00      0    361    338.9   0.00   0.00 0.5452   0.031   0.013   0.010   0.006   0.005   0.005   0.002   0.000   0.000   0.000      0      0      0       0       0   6.200  126.934
   17 082   151   150  16.592     1  1.376    439      0      0    492    821    821      0      0    0.0  0.000    382   0.00   0.00   1.00   0.33   0.00   0.00   0.00   1.00   4.44  400.0   0.00      0    382    337.2   0.00   0.00 0.5530   0.031   0.013   0.011   0.007   0.006   0.005   0.002   0.000   0.000   0.000      0      0      0       0       0   8.400  131.835
   17 083   152   151  16.782     1  1.426    454      0      0    518    851    851      0      0    0.0  0.000    397   0.00   0.00   1.00   0.36   0.00   0.00   0.00   1.00   4.39  400.0   0.00      0    397    336.0   0.00   0.00 0.5590   0.032   0.014   0.011   0.007   0.006   0.006   0.003   0.000   0.000   0.000      0      0      0       0       0   6.450  135.646
   17 084   153   152  17.019     1  1.488    472      0      0    549    888    888      0      0    0.0  0.000    415   0.00   0.00   1.00   0.37   0.00   0.00   0.00   1.00   4.30  400.0   0.00      0    415    334.4   0.00   0.00 0.5663   0.032   0.014   0.012   0.008   0.006   0.006   0.003   0.000   0.000   0.000      0      0      0       0       0   7.900  140.373
   17 085   154   153  17.197     1  1.533    486      0      0    571    915    915      0      0    0.0  0.000    429   0.00   0.00   1.00   0.40   0.00   0.00   0.00   1.00   4.26  400.0   0.00      0    429    333.3   0.00   0.00 0.5717   0.033   0.015   0.012   0.008   0.007   0.006   0.004   0.000   0.000   0.000      0      0      0       0       0   5.900  143.946
   17 086   155   154  17.444     1  1.594    504      0      0    602    952    952      0      0    0.0  0.000    447   0.00   0.00   1.00   0.40   0.00   0.00   0.00   1.00   4.17  400.0   0.00      0    447    331.8   0.00   0.00 0.5792   0.033   0.015   0.012   0.009   0.007   0.007   0.004   0.000   0.000   0.000      0      0      0       0       0   8.050  148.881
   17 087   156   155  17.736     1  1.663    525      0      0    638    994    994      0      0    0.0  0.000    468   0.00   0.00   1.00   0.43   0.00   0.00   0.00   1.00   4.06  400.0   0.00      0    468    330.0   0.00   0.00 0.5878   0.033   0.016   0.013   0.009   0.008   0.007   0.005   0.000   0.000   0.000      0      0      0       0       0   9.406  154.716
   17 088   157   156  18.106     1  1.748    551      0      0    683   1045   1045      0      0    0.0  0.000    494   0.00   0.00   1.00   0.45   0.00   0.00   0.00   1.00   3.92  400.0   0.00      0    494    327.8   0.00   0.00 0.5987   0.032   0.017   0.014   0.010   0.009   0.008   0.006   0.000   0.000   0.000      0      0      0       0       0  11.800  162.120
   17 089   158   157  18.452     1  1.821    573      0      0    721   1090   1090      0      0    0.0  0.000    516   0.00   0.00   1.00   0.49   0.00   0.00   0.00   1.00   3.81  400.0   0.00      0    516    325.8   0.00   0.00 0.6088   0.032   0.018   0.015   0.011   0.009   0.009   0.007   0.000   0.000   0.000      0      0      0       0       0  10.900  169.038
   17 090   159   158  18.895     1  1.910    601      0      0    769   1145   1145      0      0    0.0  0.000    544   0.00   0.00   1.00   0.52   0.00   0.00   0.00   1.00   3.68  400.0   0.00      0    544    323.4   0.00   0.00 0.6210   0.032   0.019   0.016   0.012   0.010   0.009   0.007   0.001   0.000   0.000      0      0      0       0       0  13.800  177.894
   17 091   160   159  19.307     1  1.982    625      0      0    809   1193   1193      0      0    0.0  0.000    568   0.00   0.00   1.00   0.56   0.00   0.00   0.00   1.00   3.58  400.0   0.00      0    568    321.3   0.00   0.00 0.6321   0.031   0.020   0.016   0.012   0.011   0.010   0.008   0.001   0.000   0.000      0      0      0       0       0  12.700  186.134
   17 092   161   160  19.735     1  2.053    649      0      0    849   1240   1240      0      0    0.0  0.000    591   0.00   0.00   1.00   0.58   0.00   0.00   0.00   1.00   3.48  400.0   0.00      0    591    319.1   0.00   0.00 0.6436   0.031   0.020   0.017   0.013   0.011   0.010   0.008   0.002   0.000   0.000      0      0      0       0       0  13.050  194.691
   17 093   162   161  20.116     1  2.113    669      0      0    880   1280   1280      0      0    0.0  0.000    611   0.00   0.00   1.00   0.61   0.00   0.00   0.00   1.00   3.41  400.0   0.00      0    611    317.3   0.00   0.00 0.6537   0.032   0.021   0.018   0.014   0.012   0.011   0.009   0.003   0.000   0.000      0      0      0       0       0  11.500  202.312
   17 094   163   162  20.377     1  2.152    681      0      0    897   1306   1306      0      0    0.0  0.000    624   0.00   0.00   1.00   0.63   0.00   0.00   0.00   1.00   3.38  400.0   0.00      0    624    316.1   0.00   0.00 0.6606   0.032   0.021   0.018   0.014   0.012   0.011   0.009   0.003   0.000   0.000      0      0      0       0       0   7.800  207.534
   17 095   164   163  20.662     1  2.194    696      0      0    916   1334   1334      0      0    0.0  0.000    638   0.00   0.00   1.00   0.63   0.00   0.00   0.00   1.00   3.34  400.0   0.00      0    638    314.8   0.00   0.00 0.6680   0.032   0.022   0.018   0.014   0.013   0.011   0.009   0.004   0.000   0.000      0      0      0       0       0   8.450  213.248
   17 096   165   164  20.838     1  2.219    704      0      0    924   1351   1351      0      0    0.0  0.000    647   0.00   0.00   1.00   0.64   0.00   0.00   0.00   1.00   3.33  400.0   0.00      0    647    314.0   0.00   0.00 0.6726   0.033   0.022   0.019   0.015   0.013   0.012   0.010   0.004   0.000   0.000      0      0      0       0       0   5.150  216.766
   17 097   166   165  21.159     1  2.267    719      0      0    945   1382   1382      0      0    0.0  0.000    662   0.00   0.00   1.00   0.64   0.00   0.00   0.00   1.00   3.29  400.0   0.00      0    662    312.6   0.00   0.00 0.6808   0.032   0.022   0.019   0.015   0.013   0.012   0.010   0.005   0.000   0.000      0      0      0       0       0   9.300  223.179
   17 098   167   166  21.542     1  2.322    737      0      0    972   1418   1418      0      0    0.0  0.000    680   0.00   0.00   1.00   0.65   0.00   0.00   0.00   1.00   3.23  400.0   0.00      0    680    311.0   0.00   0.00 0.6904   0.032   0.022   0.019   0.015   0.013   0.012   0.010   0.005   0.000   0.000      0      0      0       0       0  11.000  230.837
   17 099   168   167  21.972     1  2.382    757      0      0   1002   1458   1458      0      0    0.0  0.000    700   0.00   0.00   1.00   0.66   0.00   0.00   0.00   1.00   3.17  400.0   0.00      0    700    309.3   0.00   0.00 0.7012   0.032   0.023   0.020   0.016   0.014   0.012   0.010   0.006   0.000   0.000      0      0      0       0       0  12.250  239.445
   17 100   169   168  22.479     1  2.438    780      0      0   1037   1503   1503      0      0    0.0  0.000    723   0.00   0.00   1.00   0.68   0.00   0.00   0.00   1.00   3.10  400.0   0.00      0    723    307.3   0.00   0.00 0.7132   0.031   0.023   0.020   0.016   0.014   0.013   0.011   0.006   0.000   0.000      0      0      0       0       0  14.300  249.586
   17 101   170   169  22.728     1  2.457    790      0      0   1047   1523   1523      0      0    0.0  0.000    733   0.00   0.00   1.00   0.70   0.00   0.00   0.00   1.00   3.08  400.0   0.00      0    733    306.4   0.00   0.00 0.7190   0.031   0.024   0.021   0.017   0.015   0.013   0.011   0.007   0.000   0.000      0      0      0       0       0   6.950  254.558
   17 102   171   170  23.060     1  2.494    804      0      0   1064   1551   1551      0      0    0.0  0.000    747   0.00   0.00   1.00   0.70   0.00   0.00   0.00   1.00   3.05  400.0   0.00      0    747    305.2   0.00   0.00 0.7267   0.031   0.024   0.021   0.017   0.015   0.013   0.011   0.007   0.000   0.000      0      0      0       0       0   9.200  261.199
   17 103   172   171  23.435     1  2.534    819      0      0   1084   1581   1581      0      0    0.0  0.000    762   0.00   0.00   1.00   0.71   0.00   0.00   0.00   1.00   3.01  400.0   0.00      0    762    303.9   0.00   0.00 0.7353   0.030   0.024   0.021   0.017   0.015   0.014   0.011   0.007   0.001   0.000      0      0      0       0       0  10.300  268.697
   17 104   173   172  23.747     1  2.566    831      0      0   1098   1606   1606      0      0    0.0  0.000    774   0.00   0.00   1.00   0.72   0.00   0.00   0.00   1.00   2.98  400.0   0.00      0    774    302.9   0.00   0.00 0.7424   0.030   0.025   0.021   0.017   0.015   0.014   0.012   0.007   0.001   0.000      0      0      0       0       0   8.500  274.937
   17 105   174   173  24.147     1  2.609    847      0      0   1118   1637   1637      0      0    0.0  0.000    790   0.00   0.00   1.00   0.72   0.00   0.00   0.00   1.00   2.94  400.0   0.00      0    790    301.6   0.00   0.00 0.7514   0.030   0.025   0.022   0.017   0.015   0.014   0.012   0.007   0.001   0.000      0      0      0       0       0  10.800  282.931
   17 106   175   174  24.391     1  2.632    856      0      0   1126   1656   1656      0      0    0.0  0.000    799   0.00   0.00   1.00   0.73   0.00   0.00   0.00   1.00   2.93  400.0   0.00      0    799    300.8   0.00   0.00 0.7569   0.030   0.025   0.022   0.018   0.016   0.014   0.012   0.008   0.001   0.000      0      0      0       0       0   6.550  287.818
   17 107   176   175  24.594     1  2.653    864      0      0   1130   1671   1671      0      0    0.0  0.000    807   0.00   0.00   1.00   0.73   0.00   0.00   0.00   1.00   2.92  400.0   0.00      0    807    300.2   0.00   0.00 0.7614   0.030   0.025   0.022   0.018   0.016   0.014   0.012   0.008   0.001   0.000      0      0      0       0       0   5.400  291.879
   17 108   177   176  24.717     1  2.665    869      0      0   1127   1680   1680      0      0    0.0  0.000    811   0.00   0.00   1.00   0.73   0.00   0.00   0.00   1.00   2.93  400.0   0.00      0    811    299.8   0.00   0.00 0.7641   0.030   0.025   0.022   0.018   0.016   0.014   0.012   0.008   0.001   0.000      0      0      0       0       0   3.250  294.342
   17 109   178   177  24.799     1  2.673    872      0      0   1122   1686   1686      0      0    0.0  0.000    814   0.00   0.00   1.00   0.73   0.00   0.00   0.00   1.00   2.94  400.0   0.00      0    814    299.6   0.00   0.00 0.7659   0.030   0.025   0.022   0.018   0.016   0.014   0.012   0.008   0.001   0.000      0      0      0       0       0   2.150  295.984
   17 110   179   178  24.915     1  2.683    875      0      0   1118   1694   1694      0      0    0.0  0.000    818   0.00   0.00   1.00   0.72   0.00   0.00   0.00   1.00   2.94  400.0   0.00      0    818    299.3   0.00   0.00 0.7684   0.030   0.025   0.022   0.018   0.016   0.014   0.012   0.008   0.002   0.000      0      0      0       0       0   3.004  298.295
   17 111   180   179  25.134     1  2.708    884      0      0   1124   1711   1711      0      0    0.0  0.000    827   0.00   0.00   1.00   0.72   0.00   0.00   0.00   1.00   2.93  400.0   0.00      0    827    298.6   0.00   0.00 0.7732   0.030   0.025   0.022   0.018   0.016   0.014   0.012   0.008   0.002   0.000      0      0      0       0       0   5.662  302.682
   17 112   181   180  25.409     1  2.739    895      0      0   1135   1733   1733      0      0    0.0  0.000    837   0.00   0.00   1.00   0.72   0.00   0.00   0.00   1.00   2.91  400.0   0.00      0    837    297.8   0.00   0.00 0.7791   0.030   0.025   0.022   0.018   0.016   0.014   0.012   0.008   0.002   0.000      0      0      0       0       0   7.050  308.184
   17 113   182   181  25.581     1  2.757    901      0      0   1137   1746   1746      0      0    0.0  0.000    844   0.00   0.00   1.00   0.72   0.00   0.00   0.00   1.00   2.90  400.0   0.00      0    844    297.4   0.00   0.00 0.7827   0.030   0.025   0.022   0.018   0.016   0.014   0.012   0.008   0.002   0.000      0      0      0       0       0   4.374  311.621
   17 114   183   182  25.877     1  2.770    913      0      0   1148   1769   1769      0      0    0.0  0.000    856   0.00   0.00   1.00   0.72   0.00   0.00   0.00   1.00   2.88  400.0   0.00      0    856    296.6   0.00   0.00 0.7890   0.030   0.025   0.022   0.018   0.016   0.014   0.012   0.008   0.002   0.000      0      0      0       0       0   7.489  317.546
   17 115   184   183  26.188     1  2.772    925      0      0   1161   1793   1793      0      0    0.0  0.000    868   0.00   0.00   1.00   0.72   0.00   0.00   0.00   1.00   2.86  400.0   0.00      0    868    295.8   0.00   0.00 0.7955   0.030   0.025   0.022   0.018   0.016   0.014   0.012   0.008   0.002   0.000      0      0      0       0       0   7.800  323.757
   17 116   185   184  26.316     1  2.754    930      0      0   1159   1803   1803      0      0    0.0  0.000    873   0.00   0.00   1.00   0.73   0.00   0.00   0.00   1.00   2.86  400.0   0.00      0    873    295.4   0.00   0.00 0.7982   0.030   0.025   0.022   0.018   0.016   0.015   0.012   0.008   0.002   0.000      0      0      0       0       0   3.200  326.322
   17 117   186   185  26.411     1  2.754    933      0      0   1155   1810   1810      0      0    0.0  0.000    876   0.00   0.00   1.00   0.73   0.00   0.00   0.00   1.00   2.86  400.0   0.00      0    876    295.2   0.00   0.00 0.8001   0.030   0.025   0.022   0.018   0.016   0.014   0.012   0.008   0.002   0.000      0      0      0       0       0   2.350  328.218
   17 118   187   186  26.520     1  2.758    937      0      0   1152   1818   1818      0      0    0.0  0.000    880   0.00   0.00   1.00   0.72   0.00   0.00   0.00   1.00   2.87  400.0   0.00      0    880    294.9   0.00   0.00 0.8024   0.030   0.025   0.022   0.018   0.016   0.014   0.012   0.008   0.002   0.000      0      0      0       0       0   2.700  330.409
   17 119   188   187  26.804     1  2.782    949      0      0   1162   1840   1840      0      0    0.0  0.000    891   0.00   0.00   1.00   0.72   0.00   0.00   0.00   1.00   2.85  400.0   0.00      0    891    294.2   0.00   0.00 0.8082   0.029   0.025   0.022   0.018   0.016   0.014   0.012   0.008   0.003   0.000      0      0      0       0       0   6.950  336.083
   17 120   189   188  27.131     1  2.797    961      0      0   1176   1866   1866      0      0    0.0  0.000    904   0.00   0.00   1.00   0.72   0.00   0.00   0.00   1.00   2.82  400.0   0.00      0    904    293.4   0.00   0.00 0.8149   0.030   0.025   0.022   0.018   0.016   0.014   0.012   0.009   0.003   0.000      0      0      0       0       0   7.950  342.612
   17 121   190   189  27.463     1  2.812    974      0      0   1190   1892   1892      0      0    0.0  0.000    917   0.00   0.00   1.00   0.72   0.00   0.00   0.00   1.00   2.80  400.0   0.00      0    917    292.7   0.00   0.00 0.8216   0.030   0.025   0.022   0.018   0.016   0.015   0.013   0.009   0.003   0.000      0      0      0       0       0   8.050  349.261
   17 122   191   190  27.858     1  2.836    989      0      0   1208   1922   1922      0      0    0.0  0.000    932   0.00   0.00   1.00   0.73   0.00   0.00   0.00   1.00   2.76  400.0   0.00      0    932    291.8   0.00   0.00 0.8295   0.030   0.025   0.022   0.018   0.016   0.015   0.013   0.009   0.003   0.000      0      0      0       0       0   9.500  357.152
   17 123   192   191  28.294     1  2.863   1006      0      0   1229   1954   1954      0      0    0.0  0.000    948   0.00   0.00   1.00   0.73   0.00   0.00   0.00   1.00   2.73  400.0   0.00      0    948    290.9   0.00   0.00 0.8383   0.030   0.025   0.022   0.018   0.016   0.015   0.013   0.009   0.003   0.000      0      0      0       0       0  10.450  365.879
   17 124   193   192  28.703     1  2.886   1021      0      0   1246   1984   1984      0      0    0.0  0.000    963   0.00   0.00   1.00   0.74   0.00   0.00   0.00   1.00   2.70  400.0   0.00      0    963    290.0   0.00   0.00 0.8464   0.030   0.026   0.023   0.019   0.017   0.015   0.013   0.009   0.003   0.000      0      0      0       0       0   9.750  374.065
   17 125   194   193  29.180     1  2.920   1038      0      0   1268   2019   2019      0      0    0.0  0.000    981   0.00   0.00   1.00   0.75   0.00   0.00   0.00   1.00   2.66  400.0   0.00      0    981    289.1   0.00   0.00 0.8559   0.031   0.026   0.023   0.019   0.017   0.015   0.013   0.009   0.003   0.000      0      0      0       0       0  11.300  383.601
   17 126   195   194  29.725     1  2.960   1057      0      0   1294   2057   2057      0      0    0.0  0.000   1000   0.00   0.00   1.00   0.75   0.00   0.00   0.00   1.00   2.62  400.0   0.00      0   1000    288.1   0.00   0.00 0.8666   0.031   0.026   0.023   0.019   0.017   0.016   0.013   0.010   0.004   0.000      0      0      0       0       0  12.850  394.500
   17 127   196   195  30.185     2  2.870   1071      6      0   1294   2091   2091      0      0    0.0  0.000   1014   0.00   0.00   1.00   0.76   0.00   0.00   0.00   1.00   2.60  482.7   0.00      0   1014    288.1   0.00   0.00 0.8762   0.031   0.027   0.023   0.020   0.017   0.016   0.014   0.010   0.004   0.000      0      0      0       0       0  11.450    4.259
   17 128   197   196  30.581     2  2.807   1083     10      0   1292   2119   2119      0      0    0.0  0.000   1026   0.00   0.00   1.00   0.77   0.00   0.00   0.00   1.00   2.58  501.2   0.00      0   1026    288.1   0.00   0.00 0.8838   0.031   0.026   0.023   0.020   0.017   0.016   0.014   0.010   0.004   0.000      0      0      0       0       0   9.150   13.409
   17 129   198   197  30.895     2  2.794   1100     18      0   1295   2162   2162      0      0    0.0  0.000   1043   0.00   0.00   1.00   0.77   0.00   0.00   0.00   1.00   2.54  512.8   0.00      0   1043    288.1   0.00   0.00 0.8899   0.031   0.026   0.023   0.019   0.017   0.016   0.014   0.010   0.004   0.000      0      0      0       0       0   7.250   20.659
   17 130   199   198  31.264     2  2.831   1128     32      0   1309   2231   2231      0      0    0.0  0.000   1071   0.00   0.00   1.00   0.78   0.00   0.00   0.00   1.00   2.49  526.0   0.00      0   1071    288.1   0.00   0.00 0.8970   0.031   0.026   0.023   0.019   0.017   0.016   0.014   0.010   0.004   0.000      0      0      0       0       0   8.500   29.159
   17 131   200   199  31.799     2  2.850   1151     44      0   1318   2288   2288      0      0    0.0  0.000   1094   0.00   0.00   1.00   0.80   0.00   0.00   0.00   1.00   2.45  534.1   0.00      0   1094    288.1   0.00   0.00 0.9073   0.031   0.026   0.023   0.020   0.018   0.016   0.014   0.010   0.004   0.000      0      0      0       0       0  12.350   41.509
   17 132   201   200  32.520     2  2.851   1171     56      0   1326   2342   2342      0      0    0.0  0.000   1114   0.00   0.00   1.00   0.80   0.00   0.00   0.00   1.00   2.41  532.0   0.00      0   1114    288.1   0.00   0.00 0.9201   0.031   0.027   0.023   0.020   0.018   0.016   0.014   0.010   0.005   0.000      0      0      0       0       0  16.650   58.159
   17 133   202   201  33.183     2  2.840   1190     69      0   1332   2392   2392      0      0    0.0  0.000   1133   0.00   0.00   1.00   0.81   0.00   0.00   0.00   1.00   2.38  524.9   0.00      0   1133    288.1   0.00   0.00 0.9319   0.031   0.027   0.024   0.020   0.018   0.016   0.014   0.010   0.005   0.000      0      0      0       0       0  15.300   73.459
   17 134   203   202  33.820     2  2.844   1207     83      0   1337   2439   2439      0      0    0.0  0.000   1149   0.00   0.00   1.00   0.81   0.00   0.00   0.00   1.00   2.35  515.2   0.00      0   1149    288.1   0.00   0.00 0.9432   0.031   0.027   0.024   0.020   0.018   0.016   0.014   0.010   0.005   0.000      0      0      0       0       0  14.700   88.159
   17 135   204   203  34.390     2  2.857   1223     96      0   1342   2484   2484      0      0    0.0  0.000   1165   0.00   0.00   1.00   0.82   0.00   0.00   0.00   1.00   2.33  505.4   0.00      0   1165    288.1   0.00   0.00 0.9534   0.031   0.027   0.024   0.020   0.018   0.016   0.014   0.011   0.005   0.000      0      0      0       0       0  13.150  101.309
   17 136   205   204  35.008     2  2.757   1241    114      0   1350   2540   2540      0      0    0.0  0.000   1184   0.00   0.00   1.00   0.82   0.00   0.00   0.00   1.00   2.30  493.9   0.00      0   1184    288.1   0.00   0.00 0.9643   0.031   0.027   0.024   0.020   0.018   0.016   0.014   0.011   0.005   0.000      0      0      0       0       0  14.250  115.559
   17 137   206   205  35.686     2  2.677   1260    134      0   1359   2597   2597      0      0    0.0  0.000   1203   0.00   0.00   1.00   0.82   0.00   0.00   0.00   1.00   2.27  480.5   0.00      0   1203    288.1   0.00   0.00 0.9764   0.031   0.027   0.024   0.020   0.018   0.016   0.014   0.011   0.005   0.000      0      0      0       0       0  15.650  131.209
   17 138   207   206  36.462     2  2.605   1275    152      0   1365   2646   2646      0      0    0.0  0.000   1218   0.00   0.00   1.00   0.82   0.00   0.00   0.00   1.00   2.25  463.5   0.00      0   1218    288.1   0.00   0.00 0.9902   0.032   0.027   0.024   0.020   0.018   0.016   0.014   0.011   0.005   0.000      0      0      0       0       0  17.917  149.126
   17 139   208   207  37.153     2  2.537   1287    168      0   1367   2685   2685      0      0    0.0  0.000   1230   0.00   0.00   1.00   0.82   0.00   0.00   0.00   1.00   2.24  447.5   0.00      0   1230    288.1   0.00   0.00 1.0025   0.032   0.027   0.024   0.020   0.018   0.016   0.014   0.011   0.005   0.001      0      0      0       0       0  15.950  165.076
   17 140   209   208  37.619     2  2.513   1302    189      0   1373   2735   2735      0      0    0.0  0.000   1245   0.00   0.00   1.00   0.82   0.00   0.00   0.00   1.00   2.22  437.0   0.00      0   1245    288.1   0.00   0.00 1.0107   0.031   0.027   0.024   0.020   0.018   0.016   0.014   0.011   0.005   0.001      0      0      0       0       0  10.750  175.826
[...]
   17 167   236   235  66.777     4  0.773    438   1736      0    531   2555   2555      0      0    0.0  0.000    381   0.00   0.00   1.00   0.00   0.00   0.00   0.00   1.00   2.21  400.0   0.00      0    381    288.1   0.00   0.00 1.3169   0.009   0.007   0.006   0.005   0.005   0.004   0.004   0.004   0.004   0.003      0      0      0       0       0  17.700  122.641
   17 168   237   236  67.414     4  0.762    438   1836      0    537   2655   2655      0      0    0.0  0.000    381   0.00   0.00   1.00   0.00   0.00   0.00   0.00   1.00   2.21  400.0   0.00      0    381    288.1   0.00   0.00 1.3253   0.009   0.007   0.006   0.005   0.005   0.004   0.004   0.004   0.004   0.004      0      0      0       0       0  15.300  137.941
   17 169   238   237  68.045     4  0.752    438   1946      0    544   2765   2765      0      0    0.0  0.000    381   0.00   0.00   1.00   0.00   0.00   0.00   0.00   1.00   2.21  400.0   0.00      0    381    288.1   0.00   0.00 1.3336   0.009   0.007   0.006   0.006   0.005   0.005   0.004   0.004   0.004   0.004      0      0      0       0       0  15.150  153.091
   17 170   239   238  68.838     4  0.743    438   2052      0    550   2870   2870      0      0    0.0  0.000    381   0.00   0.00   1.00   0.00   0.00   0.00   0.00   1.00   2.21  400.0   0.00      0    381    288.1   0.00   0.00 1.3441   0.009   0.007   0.006   0.006   0.005   0.005   0.004   0.004   0.004   0.004      0      0      0       0       0  19.016  172.107
   17 171   240   239  69.713     4  0.731    438   2137      0    554   2956   2956      0      0    0.0  0.000    381   0.00   0.00   1.00   0.00   0.00   0.00   0.00   1.00   2.21  400.0   0.00      0    381    288.1   0.00   0.00 1.3556   0.009   0.007   0.006   0.006   0.005   0.005   0.004   0.004   0.004   0.004      0      0      0       0       0  21.012  193.120
   17 172   241   240  70.382     5  0.718    438   1807    393    559   2625   3019   7479   7479    5.3  0.130    381   0.00   0.00   1.00   0.00   0.00   0.00   0.00   1.00   1.37  400.0   0.00      0    381    288.1   0.00   0.00 1.3678   0.009   0.007   0.006   0.006   0.005   0.005   0.004   0.004   0.004   0.004      0      0      0       0       0  22.150   15.269
   17 173   242   241  70.928     5  0.717    438   1760    507    564   2579   3086   7479   7479    6.8  0.164    381   0.00   0.00   1.00   0.00   0.00   0.00   0.00   1.00   1.13  400.0   0.00      0    381    288.1   0.00   0.00 1.3798   0.009   0.007   0.006   0.006   0.005   0.005   0.005   0.004   0.004   0.004      0      0      0       0       0  21.838   37.107
   17 174   243   242  71.479     5  0.715    438   1722    611    568   2541   3152   7479   7479    8.2  0.194    381   0.00   0.00   1.00   0.00   0.00   0.00   0.00   1.00   0.96  400.0   0.00      0    381    288.1   0.00   0.00 1.3919   0.009   0.007   0.006   0.006   0.005   0.005   0.005   0.004   0.004   0.004      0      0      0       0       0  22.044   59.151
   17 175   244   243  71.992     5  0.712    438   1700    707    573   2519   3226   7479   7479    9.5  0.219    381   0.00   0.00   1.00   0.00   0.00   0.00   0.00   1.00   0.85  400.0   0.00      0    381    288.1   0.00   0.00 1.4032   0.009   0.007   0.006   0.006   0.005   0.005   0.005   0.004   0.004   0.004      0      0      0       0       0  20.530   79.681
   17 176   245   244  72.431     5  0.709    438   1672    793    576   2491   3283   7479   7479   10.6  0.241    381   0.00   0.00   1.00   0.00   0.00   0.00   0.00   1.00   0.78  400.0   0.00      0    381    288.1   0.00   0.00 1.4129   0.009   0.007   0.006   0.006   0.005   0.005   0.005   0.004   0.004   0.004      0      0      0       0       0  17.550   97.231
   17 177   246   245  72.962     5  0.705    438   1661    876    580   2480   3356   7479   7479   11.7  0.261    381   0.00   0.00   1.00   0.00   0.00   0.00   0.00   1.00   0.73  400.0   0.00      0    381    288.1   0.00   0.00 1.4246   0.009   0.007   0.006   0.006   0.005   0.005   0.005   0.004   0.004   0.004      0      0      0       0       0  21.236  118.467
   17 178   247   246  73.498     5  0.699    438   1645    953    582   2463   3416   7479   7479   12.7  0.279    381   0.00   0.00   1.00   0.00   0.00   0.00   0.00   1.00   0.69  400.0   0.00      0    381    288.1   0.00   0.00 1.4364   0.009   0.007   0.006   0.006   0.005   0.005   0.005   0.004   0.004   0.004      0      0      0       0       0  21.442  139.909
   17 179   248   247  74.014     5  0.692    438   1629   1029    584   2448   3477   7479   7479   13.8  0.296    381   0.00   0.00   1.00   0.00   0.00   0.00   0.00   1.00   0.66  400.0   0.00      0    381    288.1   0.00   0.00 1.4477   0.009   0.007   0.006   0.006   0.005   0.005   0.005   0.004   0.004   0.004      0      0      0       0       0  20.650  160.559
   17 180   249   248  74.471     5  0.685    438   1609   1107    586   2427   3534   7479   7479   14.8  0.313    381   0.00   0.00   1.00   0.00   0.00   0.00   0.00   1.00   0.64  400.0   0.00      0    381    288.1   0.00   0.00 1.4578   0.009   0.007   0.006   0.006   0.005   0.005   0.005   0.004   0.004   0.004      0      0      0       0       0  18.300  178.859
   17 181   250   249  74.913     5  0.678    438   1599   1189    589   2418   3607   7479   7479   15.9  0.330    381   0.00   0.00   1.00   0.00   0.00   0.00   0.00   1.00   0.62  400.0   0.00      0    381    288.1   0.00   0.00 1.4675   0.009   0.007   0.006   0.006   0.005   0.005   0.005   0.004   0.004   0.004      0      0      0       0       0  17.650  196.509
   17 182   251   250  75.339     5  0.670    438   1577   1270    590   2396   3665   7479   7479   17.0  0.346    381   0.00   0.00   1.00   0.00   0.00   0.00   0.00   1.00   0.60  400.0   0.00      0    381    288.1   0.00   0.00 1.4769   0.009   0.007   0.006   0.006   0.005   0.005   0.005   0.004   0.004   0.004      0      0      0       0       0  17.050  213.559
   17 183   252   251  75.741     5  0.662    438   1539   1351    589   2358   3709   7479   7479   18.1  0.364    381   0.00   0.00   1.00   0.00   0.00   0.00   0.00   1.00   0.59  400.0   0.00      0    381    288.1   0.00   0.00 1.4857   0.009   0.007   0.006   0.006   0.005   0.005   0.005   0.004   0.004   0.004      0      0      0       0       0  16.100  229.659
   17 184   253   252  76.181     5  0.653    438   1513   1437    590   2332   3769   7479   7479   19.2  0.381    381   0.00   0.00   1.00   0.00   0.00   0.00   0.00   1.00   0.58  400.0   0.00      0    381    288.1   0.00   0.00 1.4954   0.009   0.007   0.006   0.006   0.005   0.005   0.005   0.004   0.004   0.004      0      0      0       0       0  17.600  247.259
   17 185   254   253  76.640     5  0.644    438   1489   1523    591   2308   3831   7479   7479   20.4  0.398    381   0.00   0.00   1.00   0.00   0.00   0.00   0.00   1.00   0.57  400.0   0.00      0    381    288.1   0.00   0.00 1.5055   0.008   0.007   0.006   0.006   0.005   0.005   0.005   0.004   0.004   0.004      0      0      0       0       0  18.350  265.609
   17 186   255   254  77.130     5  0.633    438   1466   1609    591   2285   3894   7479   7479   21.5  0.413    381   0.00   0.00   1.00   0.00   0.00   0.00   0.00   1.00   0.55  400.0   0.00      0    381    288.1   0.00   0.00 1.5141   0.008   0.007   0.006   0.006   0.005   0.005   0.005   0.004   0.004   0.004      0      0      0       0       0  19.576  285.186
   17 187   256   255  77.658     5  0.620    438   1436   1694    590   2255   3949   7479   7479   22.7  0.429    381   0.00   0.00   1.00   0.00   0.00   0.00   0.00   1.00   0.54  400.0   0.00      0    381    288.1   0.00   0.00 1.5234   0.008   0.007   0.006   0.006   0.005   0.005   0.005   0.004   0.004   0.004      0      0      0       0       0  21.153  306.338
   17 188   257   256  78.208     5  0.606    438   1394   1781    588   2213   3993   7479   7479   23.8  0.446    381   0.00   0.00   1.00   0.00   0.00   0.00   0.00   1.00   0.53  400.0   0.00      0    381    288.1   0.00   0.00 1.5331   0.008   0.007   0.006   0.006   0.005   0.005   0.005   0.004   0.004   0.004      0      0      0       0       0  21.987  328.326
   17 189   258   257  78.775     5  0.590    438   1350   1869    586   2169   4038   7479   7479   25.0  0.463    381   0.00   0.00   1.00   0.00   0.00   0.00   0.00   1.00   0.52  400.0   0.00      0    381    288.1   0.00   0.00 1.5431   0.008   0.007   0.006   0.006   0.005   0.005   0.005   0.004   0.004   0.004      0      0      0       0       0  22.685  351.010
   17 190   259   258  79.329     5  0.572    438   1303   1958    583   2122   4080   7479   7479   26.2  0.480    381   0.00   0.00   1.00   0.00   0.00   0.00   0.00   1.00   0.51  400.0   0.00      0    381    288.1   0.00   0.00 1.5528   0.008   0.007   0.006   0.006   0.005   0.005   0.005   0.004   0.004   0.004      0      0      0       0       0  22.139  373.149
   17 191   260   259  79.852     5  0.553    438   1250   2053    580   2069   4122   7479   7479   27.5  0.498    381   0.00   0.00   1.00   0.00   0.00   0.00   0.00   1.00   0.49  400.0   0.00      0    381    288.1   0.00   0.00 1.5620   0.008   0.007   0.006   0.006   0.005   0.005   0.004   0.004   0.004   0.004      0      0      0       0       0  20.939  394.088
   17 192   261   260  80.331     5  0.535    438   1202   2151    576   2020   4171   7479   7479   28.8  0.516    381   0.00   0.00   1.00   0.00   0.00   0.00   0.00   1.00   0.48  400.0   0.00      0    381    288.1   0.00   0.00 1.5704   0.008   0.007   0.006   0.006   0.005   0.005   0.004   0.004   0.004   0.004      0      0      0       0       0  19.150  413.238
   17 193   262   261  80.812     5  0.517    438   1143   2251    572   1961   4213   7479   7479   30.1  0.534    381   0.00   0.00   1.00   0.00   0.00   0.00   0.00   1.00   0.47  400.0   0.00      0    381    288.1   0.00   0.00 1.5789   0.008   0.007   0.006   0.006   0.005   0.005   0.004   0.004   0.004   0.004      0      0      0       0       0  19.250  432.488
   17 194   263   262  81.206     5  0.498    438   1101   2356    567   1920   4276   7479   7479   31.5  0.551    381   0.00   0.00   1.00   0.00   0.00   0.00   0.00   1.00   0.46  400.0   0.00      0    381    288.1   0.00   0.00 1.5858   0.008   0.007   0.006   0.006   0.005   0.005   0.004   0.004   0.004   0.004      0      0      0       0       0  15.750  448.238
   17 195   264   263  81.587     5  0.482    438   1101   2402    561   1920   4322   7479   7479   32.1  0.556    381   0.00   0.00   1.00   0.00   0.00   0.00   0.00   1.00   0.45  400.0   0.00      0    381    288.1   0.00   0.00 1.5926   0.008   0.007   0.006   0.005   0.005   0.004   0.004   0.004   0.004   0.004      0      0      0       0       0  15.250  463.488
   17 196   265   264  81.972     5  0.467    438   1101   2448    555   1920   4368   7479   7479   32.7  0.560    381   0.00   0.00   1.00   0.00   0.00   0.00   0.00   1.00   0.44  400.0   0.00      0    381    288.1   0.00   0.00 1.5993   0.008   0.007   0.006   0.005   0.005   0.004   0.004   0.004   0.004   0.003      0      0      0       0       0  15.400  478.888
   17 197   266   265  82.367     5  0.450    438   1101   2502    550   1920   4422   7479   7479   33.5  0.566    381   0.00   0.00   1.00   0.00   0.00   0.00   0.00   1.00   0.43  400.0   0.00      0    381    288.1   0.00   0.00 1.6063   0.008   0.007   0.006   0.005   0.005   0.004   0.004   0.004   0.004   0.003      0      0      0       0       0  15.800  494.688
   17 198   267   266  82.825     5  0.433    438   1101   2548    544   1920   4468   7479   7479   34.1  0.570    381   0.00   0.00   1.00   0.00   0.00   0.00   0.00   1.00   0.42  400.0   0.00      0    381    288.1   0.00   0.00 1.6143   0.008   0.007   0.006   0.005   0.005   0.004   0.004   0.004   0.004   0.003      0      0      0       0       0  18.300  512.988
   17 199   268   267  83.332     5  0.412    438   1101   2591    539   1920   4512   7479   7479   34.7  0.574    381   0.00   0.00   1.00   0.00   0.00   0.00   0.00   1.00   0.41  400.0   0.00      0    381    288.1   0.00   0.00 1.6233   0.007   0.007   0.006   0.005   0.005   0.004   0.004   0.004   0.004   0.003      0      0      0       0       0  20.287  533.275
   17 200   269   268  83.893     5  0.387    438   1101   2628    533   1920   4548   7479   7479   35.1  0.578    381   0.00   0.00   1.20   0.00   0.00   0.00   0.00   1.00   0.40  400.0   0.00      0    381    288.1   0.00   0.00 1.6331   0.007   0.007   0.006   0.005   0.005   0.004   0.004   0.004   0.004   0.003      0      0      0       0       0  22.441  555.716
   17 201   270   269  84.412     5  0.354    438   1101   2654    528   1920   4574   7479   7479   35.5  0.580    381   0.00   0.00   1.00   0.00   0.00   0.00   0.00   1.00   0.39  400.0   0.00      0    381    288.1   0.00   0.00 1.6423   0.007   0.006   0.006   0.005   0.005   0.004   0.004   0.004   0.004   0.003      0      0      0       0       0  20.765  576.482
   17 202   271   270  84.926     5  0.327    438   1101   2688    523   1920   4609   7479   7479   35.9  0.583    381   0.00   0.00   1.00   0.00   0.00   0.00   0.00   1.00   0.38  400.0   0.00      0    381    288.1   0.00   0.00 1.6513   0.007   0.006   0.006   0.005   0.005   0.004   0.004   0.004   0.004   0.003      0      0      0       0       0  20.548  597.030
   17 203   272   271  85.472     5  0.300    438   1101   2715    518   1920   4635   7479   7479   36.3  0.586    381   0.00   0.00   1.00   0.00   0.00   0.00   0.00   1.00   0.37  400.0   0.00      0    381    288.1   0.00   0.00 1.6609   0.007   0.006   0.006   0.005   0.005   0.004   0.004   0.004   0.004   0.003      0      0      0       0       0  21.840  618.870
   17 204   273   272  85.956     5  0.269    438   1101   2737    512   1920   4657   7479   7479   36.6  0.588    381   0.00   0.00   1.00   0.00   0.00   0.00   0.00   1.00   0.37  400.0   0.00      0    381    288.1   0.00   0.00 1.6694   0.007   0.006   0.005   0.005   0.005   0.004   0.004   0.004   0.004   0.003      0      0      0       0       0  19.350  638.220
   17 205   274   273  86.324     5  0.242    438   1101   2751    507   1920   4671   7479   7479   36.8  0.589    381   0.00   0.00   1.00   0.00   0.00   0.00   0.00   1.00   0.36  400.0   0.00      0    381    288.1   0.00   0.00 1.6759   0.007   0.006   0.005   0.005   0.004   0.004   0.004   0.004   0.003   0.003      0      0      0       0       0  14.750  652.970
   17 206   275   274  86.688     5  0.220    438   1101   2767    502   1920   4688   7479   7479   37.0  0.590    381   0.00   0.00   1.00   0.00   0.00   0.00   0.00   1.00   0.35  400.0   0.00      0    381    288.1   0.00   0.00 1.6823   0.007   0.006   0.005   0.005   0.004   0.004   0.004   0.004   0.003   0.003      0      0      0       0       0  14.550  667.520
   17 207   276   275  87.014     5  0.198    438   1101   2776    497   1920   4696   7479   7479   37.1  0.591    381   0.00   0.00   1.00   0.00   0.00   0.00   0.00   1.00   0.35  400.0   0.00      0    381    288.1   0.00   0.00 1.6881   0.007   0.006   0.005   0.005   0.004   0.004   0.004   0.004   0.003   0.003      0      0      0       0       0  13.050  680.570
   17 208   277   276  87.396     5  0.178    438   1101   2788    492   1920   4708   7479   7479   37.3  0.592    381   0.00   0.00   1.00   0.00   0.00   0.00   0.00   1.00   0.34  400.0   0.00      0    381    288.1   0.00   0.00 1.6948   0.007   0.006   0.005   0.005   0.004   0.004   0.004   0.004   0.003   0.003      0      0      0       0       0  15.250  695.820
   17 209   278   277  87.834     5  0.155    438   1101   2803    487   1920   4723   7479   7479   37.5  0.593    381   0.00   0.00   1.00   0.00   0.00   0.00   0.00   1.00   0.34  400.0   0.00      0    381    288.1   0.00   0.00 1.7025   0.007   0.006   0.005   0.005   0.004   0.004   0.004   0.004   0.003   0.003      0      0      0       0       0  17.550  713.370
   17 210   279   278  88.329     5  0.127    438   1101   2816    482   1920   4736   7479   7479   37.6  0.595    381   0.00   0.00   1.00   0.00   0.00   0.00   0.00   1.00   0.33  400.0   0.00      0    381    288.1   0.00   0.00 1.7090   0.007   0.006   0.005   0.005   0.004   0.004   0.004   0.004   0.003   0.003      0      0      0       0       0  19.793  733.163
   17 211   280   279  88.881     5  0.094    438   1101   2823    478   1920   4743   7479   7479   37.7  0.595    381   0.00   0.00   1.24   0.00   0.00   0.00   0.00   1.00   0.32  400.0   0.00      0    381    288.1   0.00   0.00 1.7163   0.007   0.006   0.005   0.005   0.004   0.004   0.004   0.004   0.003   0.003      0      0      0       0       0  22.089  755.252
   17 212   281   280  89.439     5  0.048    438   1101   2827    473   1920   4747   7479   7479   37.8  0.596    381   0.00   0.00   1.00   0.00   0.00   0.00   0.00   1.00   0.32  400.0   0.00      0    381    288.1   0.00   0.00 1.7237   0.007   0.006   0.005   0.005   0.004   0.004   0.004   0.004   0.003   0.003      0      0      0       0       0  22.300  777.552
   17 213   282   281  90.000     6  0.009    438   1101   2827    468   1920   4747   7479   7479   37.8  0.596    381   0.00   0.00   1.64   0.00   0.00   0.00   0.00   1.00   0.32  400.0   0.00      0    381    288.1   0.00   0.00 1.7237   0.007   0.006   0.005   0.005   0.004   0.004   0.004   0.003   0.003   0.003      0      0      0       0       0  23.110    0.662
   17 214   283   282  90.000     7  0.009    438   1101   2827    468   1920   4747   7479   7479   37.8  0.596    381   0.00   0.00   1.64   0.00   0.00   0.00   0.00   1.00   0.32  400.0   0.00      0    381    288.1   0.00   0.00 1.7237   0.007   0.006   0.005   0.005   0.004   0.004   0.004   0.003   0.003   0.003      0      0      0       0       0  23.198   12.250
   17 215   284   283  90.000     7  0.009    438   1101   2827    468   1920   4747   7479   7479   37.8  0.596    381   0.00   0.00   1.64   0.00   0.00   0.00   0.00   1.00   0.32  400.0   0.00      0    381    288.1   0.00   0.00 1.7237   0.007   0.006   0.005   0.005   0.004   0.004   0.004   0.003   0.003   0.003      0      0      0       0       0  23.198   12.250
   17 216   285   284  90.000     7  0.009    438   1101   2827    468   1920   4747   7479   7479   37.8  0.596    381   0.00   0.00   1.64   0.00   0.00   0.00   0.00   1.00   0.32  400.0   0.00      0    381    288.1   0.00   0.00 1.7237   0.007   0.006   0.005   0.005   0.004   0.004   0.004   0.003   0.003   0.003      0      0      0       0       0  23.198   12.250
   17 217   286   285  90.000     7  0.009    438   1101   2827    468   1920   4747   7479   7479   37.8  0.596    381   0.00   0.00   1.64   0.00   0.00   0.00   0.00   1.00   0.32  400.0   0.00      0    381    288.1   0.00   0.00 1.7237   0.007   0.006   0.005   0.005   0.004   0.004   0.004   0.003   0.003   0.003      0      0      0       0       0  23.198   12.250
   17 218   287   286  90.000     7  0.009    438   1101   2827    468   1920   4747   7479   7479   37.8  0.596    381   0.00   0.00   1.64   0.00   0.00   0.00   0.00   1.00   0.32  400.0   0.00      0    381    288.1   0.00   0.00 1.7237   0.007   0.006   0.005   0.005   0.004   0.004   0.004   0.003   0.003   0.003      0      0      0       0       0  23.198   12.250
   17 219   288   287  90.000     7  0.009    438   1101   2827    468   1920   4747   7479   7479   37.8  0.596    381   0.00   0.00   1.64   0.00   0.00   0.00   0.00   1.00   0.32  400.0   0.00      0    381    288.1   0.00   0.00 1.7237   0.007   0.006   0.005   0.005   0.004   0.004   0.004   0.003   0.003   0.003      0      0      0       0       0  23.198   12.250
