*SOIL ORGANIC N BALANCE

*DSSAT Cropping System Model Ver. 4.8.5.000 -release  MAR 01, 2026 09:34:40

*RUN   1        : 1                         WHAPS048 TUDU1701    1
 MODEL          : WHAPS048 - Wheat
 EXPERIMENT     : TUDU1701 WH
 DATA PATH      :
 TREATMENT  1   : 1                         WHAPS048
  


!                                        INITIAL Year/Doy      FINAL Year/Doy
!                                                  16/298              17/219
!SOIL N BALANCE                                 -----------kg N/ha-----------

!   Soil Humus N                                 16871.71            16845.90
!   Soil Litter N                                   91.80               57.73
!   N in Surface Residue                             0.00                0.00

!   Added to / Removed from Soil:
!   N in Harvest Residues from Previous Crop         0.00
!   N from Organic Applications                      0.00
!   N from senesced plant matter                     0.00
!   N immobilized                                    2.54
!   N mineralized                                                       62.42

!   Total N balance                              16966.05            16966.05
!   Balance                                                            -0.004

!===============================================================================

*DSSAT Cropping System Model Ver. 4.8.5.000 -release  MAR 01, 2026 09:34:40

*RUN   2        : 2                         WHAPS048 TUDU1701    2
 MODEL          : WHAPS048 - Wheat
 EXPERIMENT     : TUDU1701 WH
 DATA PATH      :
 TREATMENT  2   : 2                         WHAPS048
  


!                                        INITIAL Year/Doy      FINAL Year/Doy
!                                                  16/298              17/219
!SOIL N BALANCE                                 -----------kg N/ha-----------

!   Soil Humus N                                 16871.71            16845.98
!   Soil Litter N                                   91.80               57.75
!   N in Surface Residue                             0.00                0.00

!   Added to / Removed from Soil:
!   N in Harvest Residues from Previous Crop         0.00
!   N from Organic Applications                      0.00
!   N from senesced plant matter                     0.00
!   N immobilized                                    2.54
!   N mineralized                                                       62.31

!   Total N balance                              16966.05            16966.04
!   Balance                                                            -0.004

!===============================================================================

*DSSAT Cropping System Model Ver. 4.8.5.000 -release  MAR 01, 2026 09:34:40

*RUN   3        : 3                         WHAPS048 TUDU1701    3
 MODEL          : WHAPS048 - Wheat
 EXPERIMENT     : TUDU1701 WH
 DATA PATH      :
 TREATMENT  3   : 3                         WHAPS048
  


!                                        INITIAL Year/Doy      FINAL Year/Doy
!                                                  16/298              17/219
!SOIL N BALANCE                                 -----------kg N/ha-----------

!   Soil Humus N                                 16871.71            16838.19
!   Soil Litter N                                   91.80               57.99
!   N in Surface Residue                             0.00                0.00

!   Added to / Removed from Soil:
!   N in Harvest Residues from Previous Crop         0.00
!   N from Organic Applications                      0.00
!   N from senesced plant matter                     0.00
!   N immobilized                                    1.86
!   N mineralized                                                       69.18

!   Total N balance                              16965.37            16965.37
!   Balance                                                            -0.004

!===============================================================================

*DSSAT Cropping System Model Ver. 4.8.5.000 -release  MAR 01, 2026 09:34:41

*RUN   4        : 4                         WHAPS048 TUDU1701    4
 MODEL          : WHAPS048 - Wheat
 EXPERIMENT     : TUDU1701 WH
 DATA PATH      :
 TREATMENT  4   : 4                         WHAPS048
  


!                                        INITIAL Year/Doy      FINAL Year/Doy
!                                                  16/298              17/219
!SOIL N BALANCE                                 -----------kg N/ha-----------

!   Soil Humus N                                 16871.71            16845.97
!   Soil Litter N                                   91.80               57.66
!   N in Surface Residue                             0.00                0.00

!   Added to / Removed from Soil:
!   N in Harvest Residues from Previous Crop         0.00
!   N from Organic Applications                      0.00
!   N from senesced plant matter                     0.00
!   N immobilized                                    2.53
!   N mineralized                                                       62.40

!   Total N balance                              16966.04            16966.04
!   Balance                                                            -0.004

!===============================================================================

*DSSAT Cropping System Model Ver. 4.8.5.000 -release  MAR 01, 2026 09:34:41

*RUN   5        : 5                         WHAPS048 TUDU1701    5
 MODEL          : WHAPS048 - Wheat
 EXPERIMENT     : TUDU1701 WH
 DATA PATH      :
 TREATMENT  5   : 5                         WHAPS048
  


!                                        INITIAL Year/Doy      FINAL Year/Doy
!                                                  16/298              17/219
!SOIL N BALANCE                                 -----------kg N/ha-----------

!   Soil Humus N                                 16871.71            16846.98
!   Soil Litter N                                   91.80               59.55
!   N in Surface Residue                             0.00                0.00

!   Added to / Removed from Soil:
!   N in Harvest Residues from Previous Crop         0.00
!   N from Organic Applications                      0.00
!   N from senesced plant matter                     0.00
!   N immobilized                                    2.58
!   N mineralized                                                       59.55

!   Total N balance                              16966.09            16966.08
!   Balance                                                            -0.002

!===============================================================================

*DSSAT Cropping System Model Ver. 4.8.5.000 -release  MAR 01, 2026 09:34:41

*RUN   6        : 6                         WHAPS048 TUDU1701    6
 MODEL          : WHAPS048 - Wheat
 EXPERIMENT     : TUDU1701 WH
 DATA PATH      :
 TREATMENT  6   : 6                         WHAPS048
  


!                                        INITIAL Year/Doy      FINAL Year/Doy
!                                                  16/298              17/219
!SOIL N BALANCE                                 -----------kg N/ha-----------

!   Soil Humus N                                 16871.71            16845.92
!   Soil Litter N                                   91.80               57.80
!   N in Surface Residue                             0.00                0.00

!   Added to / Removed from Soil:
!   N in Harvest Residues from Previous Crop         0.00
!   N from Organic Applications                      0.00
!   N from senesced plant matter                     0.00
!   N immobilized                                    2.54
!   N mineralized                                                       62.33

!   Total N balance                              16966.04            16966.04
!   Balance                                                            -0.004

!===============================================================================

*DSSAT Cropping System Model Ver. 4.8.5.000 -release  MAR 01, 2026 09:34:41

*RUN   7        : 7                         WHAPS048 TUDU1701    7
 MODEL          : WHAPS048 - Wheat
 EXPERIMENT     : TUDU1701 WH
 DATA PATH      :
 TREATMENT  7   : 7                         WHAPS048
  


!                                        INITIAL Year/Doy      FINAL Year/Doy
!                                                  16/298              17/219
!SOIL N BALANCE                                 -----------kg N/ha-----------

!   Soil Humus N                                 16871.71            16846.72
!   Soil Litter N                                   91.80               60.57
!   N in Surface Residue                             0.00                0.00

!   Added to / Removed from Soil:
!   N in Harvest Residues from Previous Crop         0.00
!   N from Organic Applications                      0.00
!   N from senesced plant matter                     0.00
!   N immobilized                                    2.58
!   N mineralized                                                       58.80

!   Total N balance                              16966.09            16966.08
!   Balance                                                            -0.002

!===============================================================================

*DSSAT Cropping System Model Ver. 4.8.5.000 -release  MAR 01, 2026 09:34:41

*RUN   8        : 8                         WHAPS048 TUDU1701    8
 MODEL          : WHAPS048 - Wheat
 EXPERIMENT     : TUDU1701 WH
 DATA PATH      :
 TREATMENT  8   : 8                         WHAPS048
  


!                                        INITIAL Year/Doy      FINAL Year/Doy
!                                                  16/298              17/219
!SOIL N BALANCE                                 -----------kg N/ha-----------

!   Soil Humus N                                 16871.71            16847.46
!   Soil Litter N                                   91.80               60.03
!   N in Surface Residue                             0.00                0.00

!   Added to / Removed from Soil:
!   N in Harvest Residues from Previous Crop         0.00
!   N from Organic Applications                      0.00
!   N from senesced plant matter                     0.00
!   N immobilized                                    2.62
!   N mineralized                                                       58.63

!   Total N balance                              16966.13            16966.13
!   Balance                                                            -0.002

!===============================================================================

*DSSAT Cropping System Model Ver. 4.8.5.000 -release  MAR 01, 2026 09:34:42

*RUN   9        : 9                         WHAPS048 TUDU1701    9
 MODEL          : WHAPS048 - Wheat
 EXPERIMENT     : TUDU1701 WH
 DATA PATH      :
 TREATMENT  9   : 9                         WHAPS048
  


!                                        INITIAL Year/Doy      FINAL Year/Doy
!                                                  16/298              17/219
!SOIL N BALANCE                                 -----------kg N/ha-----------

!   Soil Humus N                                 16871.71            16847.45
!   Soil Litter N                                   91.80               60.11
!   N in Surface Residue                             0.00                0.00

!   Added to / Removed from Soil:
!   N in Harvest Residues from Previous Crop         0.00
!   N from Organic Applications                      0.00
!   N from senesced plant matter                     0.00
!   N immobilized                                    2.62
!   N mineralized                                                       58.57

!   Total N balance                              16966.13            16966.13
!   Balance                                                            -0.004

!===============================================================================

*DSSAT Cropping System Model Ver. 4.8.5.000 -release  MAR 01, 2026 09:34:42

*RUN  10        : 10                        WHAPS048 TUDU1701   10
 MODEL          : WHAPS048 - Wheat
 EXPERIMENT     : TUDU1701 WH
 DATA PATH      :
 TREATMENT 10   : 10                        WHAPS048
  


!                                        INITIAL Year/Doy      FINAL Year/Doy
!                                                  16/298              17/219
!SOIL N BALANCE                                 -----------kg N/ha-----------

!   Soil Humus N                                 16871.71            16838.23
!   Soil Litter N                                   91.80               57.90
!   N in Surface Residue                             0.00                0.00

!   Added to / Removed from Soil:
!   N in Harvest Residues from Previous Crop         0.00
!   N from Organic Applications                      0.00
!   N from senesced plant matter                     0.00
!   N immobilized                                    1.86
!   N mineralized                                                       69.24

!   Total N balance                              16965.37            16965.37
!   Balance                                                            -0.004

!===============================================================================

*DSSAT Cropping System Model Ver. 4.8.5.000 -release  MAR 01, 2026 09:34:43

*RUN  11        : 11                        WHAPS048 TUDU1701   11
 MODEL          : WHAPS048 - Wheat
 EXPERIMENT     : TUDU1701 WH
 DATA PATH      :
 TREATMENT 11   : 11                        WHAPS048
  


!                                        INITIAL Year/Doy      FINAL Year/Doy
!                                                  16/298              17/219
!SOIL N BALANCE                                 -----------kg N/ha-----------

!   Soil Humus N                                 16871.71            16847.46
!   Soil Litter N                                   91.80               60.03
!   N in Surface Residue                             0.00                0.00

!   Added to / Removed from Soil:
!   N in Harvest Residues from Previous Crop         0.00
!   N from Organic Applications                      0.00
!   N from senesced plant matter                     0.00
!   N immobilized                                    2.62
!   N mineralized                                                       58.63

!   Total N balance                              16966.13            16966.13
!   Balance                                                            -0.002

!===============================================================================

*DSSAT Cropping System Model Ver. 4.8.5.000 -release  MAR 01, 2026 09:34:43

*RUN  12        : 12                        WHAPS048 TUDU1701   12
 MODEL          : WHAPS048 - Wheat
 EXPERIMENT     : TUDU1701 WH
 DATA PATH      :
 TREATMENT 12   : 12                        WHAPS048
  


!                                        INITIAL Year/Doy      FINAL Year/Doy
!                                                  16/298              17/219
!SOIL N BALANCE                                 -----------kg N/ha-----------

!   Soil Humus N                                 16871.71            16847.43
!   Soil Litter N                                   91.80               60.17
!   N in Surface Residue                             0.00                0.00

!   Added to / Removed from Soil:
!   N in Harvest Residues from Previous Crop         0.00
!   N from Organic Applications                      0.00
!   N from senesced plant matter                     0.00
!   N immobilized                                    2.62
!   N mineralized                                                       58.54

!   Total N balance                              16966.13            16966.13
!   Balance                                                             0.000

!===============================================================================

*DSSAT Cropping System Model Ver. 4.8.5.000 -release  MAR 01, 2026 09:34:43

*RUN  13        : 13                        WHAPS048 TUDU1701   13
 MODEL          : WHAPS048 - Wheat
 EXPERIMENT     : TUDU1701 WH
 DATA PATH      :
 TREATMENT 13   : 13                        WHAPS048
  


!                                        INITIAL Year/Doy      FINAL Year/Doy
!                                                  16/298              17/219
!SOIL N BALANCE                                 -----------kg N/ha-----------

!   Soil Humus N                                 16871.71            16847.46
!   Soil Litter N                                   91.80               60.19
!   N in Surface Residue                             0.00                0.00

!   Added to / Removed from Soil:
!   N in Harvest Residues from Previous Crop         0.00
!   N from Organic Applications                      0.00
!   N from senesced plant matter                     0.00
!   N immobilized                                    2.62
!   N mineralized                                                       58.48

!   Total N balance                              16966.13            16966.12
!   Balance                                                            -0.002

!===============================================================================

*DSSAT Cropping System Model Ver. 4.8.5.000 -release  MAR 01, 2026 09:34:44

*RUN  14        : 14                        WHAPS048 TUDU1701   14
 MODEL          : WHAPS048 - Wheat
 EXPERIMENT     : TUDU1701 WH
 DATA PATH      :
 TREATMENT 14   : 14                        WHAPS048
  


!                                        INITIAL Year/Doy      FINAL Year/Doy
!                                                  16/298              17/219
!SOIL N BALANCE                                 -----------kg N/ha-----------

!   Soil Humus N                                 16871.71            16847.65
!   Soil Litter N                                   91.80               57.36
!   N in Surface Residue                             0.00                0.00

!   Added to / Removed from Soil:
!   N in Harvest Residues from Previous Crop         0.00
!   N from Organic Applications                      0.00
!   N from senesced plant matter                     0.00
!   N immobilized                                    2.58
!   N mineralized                                                       61.07

!   Total N balance                              16966.09            16966.08
!   Balance                                                            -0.002

!===============================================================================

*DSSAT Cropping System Model Ver. 4.8.5.000 -release  MAR 01, 2026 09:34:44

*RUN  15        : 15                        WHAPS048 TUDU1701   15
 MODEL          : WHAPS048 - Wheat
 EXPERIMENT     : TUDU1701 WH
 DATA PATH      :
 TREATMENT 15   : 15                        WHAPS048
  


!                                        INITIAL Year/Doy      FINAL Year/Doy
!                                                  16/298              17/219
!SOIL N BALANCE                                 -----------kg N/ha-----------

!   Soil Humus N                                 16871.71            16836.67
!   Soil Litter N                                   91.80               61.82
!   N in Surface Residue                             0.00                0.00

!   Added to / Removed from Soil:
!   N in Harvest Residues from Previous Crop         0.00
!   N from Organic Applications                      0.00
!   N from senesced plant matter                     0.00
!   N immobilized                                    1.80
!   N mineralized                                                       66.82

!   Total N balance                              16965.31            16965.31
!   Balance                                                            -0.002
