*Soil Carbon Balance

*DSSAT Cropping System Model Ver. 4.8.5.000 -release  MAR 01, 2026 09:34:40

*RUN   1        : 1                         WHAPS048 TUDU1701    1
 MODEL          : WHAPS048 - Wheat
 EXPERIMENT     : TUDU1701 WH
 DATA PATH      :
 TREATMENT  1   : 1                         WHAPS048
  

!                                                 Initial               Final
!                                                Year/DOY            Year/DOY
!                                                  16-297              16-297
! SOIL C BALANCE                                 --------- kg[C]/ha ---------
!  SOIL & SURFACE ORGANIC C
!   Soil Organic C                              310025.59           309782.62
!   Surface Organic C                                0.00                0.00
!   Soil Litter C                                 4080.00             1426.53
!   Surface Litter C                                 0.00                0.00
!   Soil methane C stored                            0.00                0.00
!                                                --------            --------
!   Total C in Soil and Surface Layers          314105.59           311209.16
!  ADDITIONS AND REMOVALS:
!   C in Harvest Residues from Previous              0.00
!   C from Organic Applications                      0.00
!   C in returned senesced material                  0.00
!   CO2-C emitted                                 2896.48
!   CH4-C emitted                                    0.00
!   CH4-C leached                                    0.00
!   CH4-C plant uptake                               0.00
!                                                --------            --------
! TOTAL C BALANCE                               314105.59           314105.62
!   Balance                                                             0.045

*DSSAT Cropping System Model Ver. 4.8.5.000 -release  MAR 01, 2026 09:34:40

*RUN   2        : 2                         WHAPS048 TUDU1701    2
 MODEL          : WHAPS048 - Wheat
 EXPERIMENT     : TUDU1701 WH
 DATA PATH      :
 TREATMENT  2   : 2                         WHAPS048
  

!                                                 Initial               Final
!                                                Year/DOY            Year/DOY
!                                                  16-297              16-297
! SOIL C BALANCE                                 --------- kg[C]/ha ---------
!  SOIL & SURFACE ORGANIC C
!   Soil Organic C                              310025.59           309784.34
!   Surface Organic C                                0.00                0.00
!   Soil Litter C                                 4080.00             1427.18
!   Surface Litter C                                 0.00                0.00
!   Soil methane C stored                            0.00                0.00
!                                                --------            --------
!   Total C in Soil and Surface Layers          314105.59           311211.53
!  ADDITIONS AND REMOVALS:
!   C in Harvest Residues from Previous              0.00
!   C from Organic Applications                      0.00
!   C in returned senesced material                  0.00
!   CO2-C emitted                                 2894.09
!   CH4-C emitted                                    0.00
!   CH4-C leached                                    0.00
!   CH4-C plant uptake                               0.00
!                                                --------            --------
! TOTAL C BALANCE                               314105.59           314105.62
!   Balance                                                             0.023

*DSSAT Cropping System Model Ver. 4.8.5.000 -release  MAR 01, 2026 09:34:40

*RUN   3        : 3                         WHAPS048 TUDU1701    3
 MODEL          : WHAPS048 - Wheat
 EXPERIMENT     : TUDU1701 WH
 DATA PATH      :
 TREATMENT  3   : 3                         WHAPS048
  

!                                                 Initial               Final
!                                                Year/DOY            Year/DOY
!                                                  16-297              16-297
! SOIL C BALANCE                                 --------- kg[C]/ha ---------
!  SOIL & SURFACE ORGANIC C
!   Soil Organic C                              310025.59           309610.09
!   Surface Organic C                                0.00                0.00
!   Soil Litter C                                 4080.00             1463.61
!   Surface Litter C                                 0.00                0.00
!   Soil methane C stored                            0.00                0.00
!                                                --------            --------
!   Total C in Soil and Surface Layers          314105.59           311073.72
!  ADDITIONS AND REMOVALS:
!   C in Harvest Residues from Previous              0.00
!   C from Organic Applications                      0.00
!   C in returned senesced material                  0.00
!   CO2-C emitted                                 3031.90
!   CH4-C emitted                                    0.00
!   CH4-C leached                                    0.00
!   CH4-C plant uptake                               0.00
!                                                --------            --------
! TOTAL C BALANCE                               314105.59           314105.62
!   Balance                                                             0.027

*DSSAT Cropping System Model Ver. 4.8.5.000 -release  MAR 01, 2026 09:34:41

*RUN   4        : 4                         WHAPS048 TUDU1701    4
 MODEL          : WHAPS048 - Wheat
 EXPERIMENT     : TUDU1701 WH
 DATA PATH      :
 TREATMENT  4   : 4                         WHAPS048
  

!                                                 Initial               Final
!                                                Year/DOY            Year/DOY
!                                                  16-297              16-297
! SOIL C BALANCE                                 --------- kg[C]/ha ---------
!  SOIL & SURFACE ORGANIC C
!   Soil Organic C                              310025.59           309784.12
!   Surface Organic C                                0.00                0.00
!   Soil Litter C                                 4080.00             1424.29
!   Surface Litter C                                 0.00                0.00
!   Soil methane C stored                            0.00                0.00
!                                                --------            --------
!   Total C in Soil and Surface Layers          314105.59           311208.41
!  ADDITIONS AND REMOVALS:
!   C in Harvest Residues from Previous              0.00
!   C from Organic Applications                      0.00
!   C in returned senesced material                  0.00
!   CO2-C emitted                                 2897.19
!   CH4-C emitted                                    0.00
!   CH4-C leached                                    0.00
!   CH4-C plant uptake                               0.00
!                                                --------            --------
! TOTAL C BALANCE                               314105.59           314105.59
!   Balance                                                             0.005

*DSSAT Cropping System Model Ver. 4.8.5.000 -release  MAR 01, 2026 09:34:41

*RUN   5        : 5                         WHAPS048 TUDU1701    5
 MODEL          : WHAPS048 - Wheat
 EXPERIMENT     : TUDU1701 WH
 DATA PATH      :
 TREATMENT  5   : 5                         WHAPS048
  

!                                                 Initial               Final
!                                                Year/DOY            Year/DOY
!                                                  16-297              16-297
! SOIL C BALANCE                                 --------- kg[C]/ha ---------
!  SOIL & SURFACE ORGANIC C
!   Soil Organic C                              310025.59           309801.12
!   Surface Organic C                                0.00                0.00
!   Soil Litter C                                 4080.00             1485.09
!   Surface Litter C                                 0.00                0.00
!   Soil methane C stored                            0.00                0.00
!                                                --------            --------
!   Total C in Soil and Surface Layers          314105.59           311286.22
!  ADDITIONS AND REMOVALS:
!   C in Harvest Residues from Previous              0.00
!   C from Organic Applications                      0.00
!   C in returned senesced material                  0.00
!   CO2-C emitted                                 2819.34
!   CH4-C emitted                                    0.00
!   CH4-C leached                                    0.00
!   CH4-C plant uptake                               0.00
!                                                --------            --------
! TOTAL C BALANCE                               314105.59           314105.56
!   Balance                                                            -0.035

*DSSAT Cropping System Model Ver. 4.8.5.000 -release  MAR 01, 2026 09:34:41

*RUN   6        : 6                         WHAPS048 TUDU1701    6
 MODEL          : WHAPS048 - Wheat
 EXPERIMENT     : TUDU1701 WH
 DATA PATH      :
 TREATMENT  6   : 6                         WHAPS048
  

!                                                 Initial               Final
!                                                Year/DOY            Year/DOY
!                                                  16-297              16-297
! SOIL C BALANCE                                 --------- kg[C]/ha ---------
!  SOIL & SURFACE ORGANIC C
!   Soil Organic C                              310025.59           309782.91
!   Surface Organic C                                0.00                0.00
!   Soil Litter C                                 4080.00             1428.85
!   Surface Litter C                                 0.00                0.00
!   Soil methane C stored                            0.00                0.00
!                                                --------            --------
!   Total C in Soil and Surface Layers          314105.59           311211.75
!  ADDITIONS AND REMOVALS:
!   C in Harvest Residues from Previous              0.00
!   C from Organic Applications                      0.00
!   C in returned senesced material                  0.00
!   CO2-C emitted                                 2893.86
!   CH4-C emitted                                    0.00
!   CH4-C leached                                    0.00
!   CH4-C plant uptake                               0.00
!                                                --------            --------
! TOTAL C BALANCE                               314105.59           314105.62
!   Balance                                                             0.021

*DSSAT Cropping System Model Ver. 4.8.5.000 -release  MAR 01, 2026 09:34:41

*RUN   7        : 7                         WHAPS048 TUDU1701    7
 MODEL          : WHAPS048 - Wheat
 EXPERIMENT     : TUDU1701 WH
 DATA PATH      :
 TREATMENT  7   : 7                         WHAPS048
  

!                                                 Initial               Final
!                                                Year/DOY            Year/DOY
!                                                  16-297              16-297
! SOIL C BALANCE                                 --------- kg[C]/ha ---------
!  SOIL & SURFACE ORGANIC C
!   Soil Organic C                              310025.59           309794.44
!   Surface Organic C                                0.00                0.00
!   Soil Litter C                                 4080.00             1519.10
!   Surface Litter C                                 0.00                0.00
!   Soil methane C stored                            0.00                0.00
!                                                --------            --------
!   Total C in Soil and Surface Layers          314105.59           311313.53
!  ADDITIONS AND REMOVALS:
!   C in Harvest Residues from Previous              0.00
!   C from Organic Applications                      0.00
!   C in returned senesced material                  0.00
!   CO2-C emitted                                 2792.07
!   CH4-C emitted                                    0.00
!   CH4-C leached                                    0.00
!   CH4-C plant uptake                               0.00
!                                                --------            --------
! TOTAL C BALANCE                               314105.59           314105.59
!   Balance                                                             0.006

*DSSAT Cropping System Model Ver. 4.8.5.000 -release  MAR 01, 2026 09:34:41

*RUN   8        : 8                         WHAPS048 TUDU1701    8
 MODEL          : WHAPS048 - Wheat
 EXPERIMENT     : TUDU1701 WH
 DATA PATH      :
 TREATMENT  8   : 8                         WHAPS048
  

!                                                 Initial               Final
!                                                Year/DOY            Year/DOY
!                                                  16-297              16-297
! SOIL C BALANCE                                 --------- kg[C]/ha ---------
!  SOIL & SURFACE ORGANIC C
!   Soil Organic C                              310025.59           309810.09
!   Surface Organic C                                0.00                0.00
!   Soil Litter C                                 4080.00             1501.15
!   Surface Litter C                                 0.00                0.00
!   Soil methane C stored                            0.00                0.00
!                                                --------            --------
!   Total C in Soil and Surface Layers          314105.59           311311.25
!  ADDITIONS AND REMOVALS:
!   C in Harvest Residues from Previous              0.00
!   C from Organic Applications                      0.00
!   C in returned senesced material                  0.00
!   CO2-C emitted                                 2794.33
!   CH4-C emitted                                    0.00
!   CH4-C leached                                    0.00
!   CH4-C plant uptake                               0.00
!                                                --------            --------
! TOTAL C BALANCE                               314105.59           314105.59
!   Balance                                                            -0.012

*DSSAT Cropping System Model Ver. 4.8.5.000 -release  MAR 01, 2026 09:34:42

*RUN   9        : 9                         WHAPS048 TUDU1701    9
 MODEL          : WHAPS048 - Wheat
 EXPERIMENT     : TUDU1701 WH
 DATA PATH      :
 TREATMENT  9   : 9                         WHAPS048
  

!                                                 Initial               Final
!                                                Year/DOY            Year/DOY
!                                                  16-297              16-297
! SOIL C BALANCE                                 --------- kg[C]/ha ---------
!  SOIL & SURFACE ORGANIC C
!   Soil Organic C                              310025.59           309809.78
!   Surface Organic C                                0.00                0.00
!   Soil Litter C                                 4080.00             1503.78
!   Surface Litter C                                 0.00                0.00
!   Soil methane C stored                            0.00                0.00
!                                                --------            --------
!   Total C in Soil and Surface Layers          314105.59           311313.56
!  ADDITIONS AND REMOVALS:
!   C in Harvest Residues from Previous              0.00
!   C from Organic Applications                      0.00
!   C in returned senesced material                  0.00
!   CO2-C emitted                                 2791.99
!   CH4-C emitted                                    0.00
!   CH4-C leached                                    0.00
!   CH4-C plant uptake                               0.00
!                                                --------            --------
! TOTAL C BALANCE                               314105.59           314105.56
!   Balance                                                            -0.040

*DSSAT Cropping System Model Ver. 4.8.5.000 -release  MAR 01, 2026 09:34:42

*RUN  10        : 10                        WHAPS048 TUDU1701   10
 MODEL          : WHAPS048 - Wheat
 EXPERIMENT     : TUDU1701 WH
 DATA PATH      :
 TREATMENT 10   : 10                        WHAPS048
  

!                                                 Initial               Final
!                                                Year/DOY            Year/DOY
!                                                  16-297              16-297
! SOIL C BALANCE                                 --------- kg[C]/ha ---------
!  SOIL & SURFACE ORGANIC C
!   Soil Organic C                              310025.59           309611.09
!   Surface Organic C                                0.00                0.00
!   Soil Litter C                                 4080.00             1459.37
!   Surface Litter C                                 0.00                0.00
!   Soil methane C stored                            0.00                0.00
!                                                --------            --------
!   Total C in Soil and Surface Layers          314105.59           311070.47
!  ADDITIONS AND REMOVALS:
!   C in Harvest Residues from Previous              0.00
!   C from Organic Applications                      0.00
!   C in returned senesced material                  0.00
!   CO2-C emitted                                 3035.10
!   CH4-C emitted                                    0.00
!   CH4-C leached                                    0.00
!   CH4-C plant uptake                               0.00
!                                                --------            --------
! TOTAL C BALANCE                               314105.59           314105.56
!   Balance                                                            -0.030

*DSSAT Cropping System Model Ver. 4.8.5.000 -release  MAR 01, 2026 09:34:43

*RUN  11        : 11                        WHAPS048 TUDU1701   11
 MODEL          : WHAPS048 - Wheat
 EXPERIMENT     : TUDU1701 WH
 DATA PATH      :
 TREATMENT 11   : 11                        WHAPS048
  

!                                                 Initial               Final
!                                                Year/DOY            Year/DOY
!                                                  16-297              16-297
! SOIL C BALANCE                                 --------- kg[C]/ha ---------
!  SOIL & SURFACE ORGANIC C
!   Soil Organic C                              310025.59           309810.09
!   Surface Organic C                                0.00                0.00
!   Soil Litter C                                 4080.00             1501.15
!   Surface Litter C                                 0.00                0.00
!   Soil methane C stored                            0.00                0.00
!                                                --------            --------
!   Total C in Soil and Surface Layers          314105.59           311311.25
!  ADDITIONS AND REMOVALS:
!   C in Harvest Residues from Previous              0.00
!   C from Organic Applications                      0.00
!   C in returned senesced material                  0.00
!   CO2-C emitted                                 2794.34
!   CH4-C emitted                                    0.00
!   CH4-C leached                                    0.00
!   CH4-C plant uptake                               0.00
!                                                --------            --------
! TOTAL C BALANCE                               314105.59           314105.59
!   Balance                                                            -0.009

*DSSAT Cropping System Model Ver. 4.8.5.000 -release  MAR 01, 2026 09:34:43

*RUN  12        : 12                        WHAPS048 TUDU1701   12
 MODEL          : WHAPS048 - Wheat
 EXPERIMENT     : TUDU1701 WH
 DATA PATH      :
 TREATMENT 12   : 12                        WHAPS048
  

!                                                 Initial               Final
!                                                Year/DOY            Year/DOY
!                                                  16-297              16-297
! SOIL C BALANCE                                 --------- kg[C]/ha ---------
!  SOIL & SURFACE ORGANIC C
!   Soil Organic C                              310025.59           309809.28
!   Surface Organic C                                0.00                0.00
!   Soil Litter C                                 4080.00             1505.65
!   Surface Litter C                                 0.00                0.00
!   Soil methane C stored                            0.00                0.00
!                                                --------            --------
!   Total C in Soil and Surface Layers          314105.59           311314.94
!  ADDITIONS AND REMOVALS:
!   C in Harvest Residues from Previous              0.00
!   C from Organic Applications                      0.00
!   C in returned senesced material                  0.00
!   CO2-C emitted                                 2790.71
!   CH4-C emitted                                    0.00
!   CH4-C leached                                    0.00
!   CH4-C plant uptake                               0.00
!                                                --------            --------
! TOTAL C BALANCE                               314105.59           314105.66
!   Balance                                                             0.050

*DSSAT Cropping System Model Ver. 4.8.5.000 -release  MAR 01, 2026 09:34:43

*RUN  13        : 13                        WHAPS048 TUDU1701   13
 MODEL          : WHAPS048 - Wheat
 EXPERIMENT     : TUDU1701 WH
 DATA PATH      :
 TREATMENT 13   : 13                        WHAPS048
  

!                                                 Initial               Final
!                                                Year/DOY            Year/DOY
!                                                  16-297              16-297
! SOIL C BALANCE                                 --------- kg[C]/ha ---------
!  SOIL & SURFACE ORGANIC C
!   Soil Organic C                              310025.59           309809.12
!   Surface Organic C                                0.00                0.00
!   Soil Litter C                                 4080.00             1506.04
!   Surface Litter C                                 0.00                0.00
!   Soil methane C stored                            0.00                0.00
!                                                --------            --------
!   Total C in Soil and Surface Layers          314105.59           311315.16
!  ADDITIONS AND REMOVALS:
!   C in Harvest Residues from Previous              0.00
!   C from Organic Applications                      0.00
!   C in returned senesced material                  0.00
!   CO2-C emitted                                 2790.40
!   CH4-C emitted                                    0.00
!   CH4-C leached                                    0.00
!   CH4-C plant uptake                               0.00
!                                                --------            --------
! TOTAL C BALANCE                               314105.59           314105.56
!   Balance                                                            -0.039

*DSSAT Cropping System Model Ver. 4.8.5.000 -release  MAR 01, 2026 09:34:44

*RUN  14        : 14                        WHAPS048 TUDU1701   14
 MODEL          : WHAPS048 - Wheat
 EXPERIMENT     : TUDU1701 WH
 DATA PATH      :
 TREATMENT 14   : 14                        WHAPS048
  

!                                                 Initial               Final
!                                                Year/DOY            Year/DOY
!                                                  16-297              16-297
! SOIL C BALANCE                                 --------- kg[C]/ha ---------
!  SOIL & SURFACE ORGANIC C
!   Soil Organic C                              310025.59           309818.75
!   Surface Organic C                                0.00                0.00
!   Soil Litter C                                 4080.00             1413.41
!   Surface Litter C                                 0.00                0.00
!   Soil methane C stored                            0.00                0.00
!                                                --------            --------
!   Total C in Soil and Surface Layers          314105.59           311232.16
!  ADDITIONS AND REMOVALS:
!   C in Harvest Residues from Previous              0.00
!   C from Organic Applications                      0.00
!   C in returned senesced material                  0.00
!   CO2-C emitted                                 2873.45
!   CH4-C emitted                                    0.00
!   CH4-C leached                                    0.00
!   CH4-C plant uptake                               0.00
!                                                --------            --------
! TOTAL C BALANCE                               314105.59           314105.59
!   Balance                                                             0.010

*DSSAT Cropping System Model Ver. 4.8.5.000 -release  MAR 01, 2026 09:34:44

*RUN  15        : 15                        WHAPS048 TUDU1701   15
 MODEL          : WHAPS048 - Wheat
 EXPERIMENT     : TUDU1701 WH
 DATA PATH      :
 TREATMENT 15   : 15                        WHAPS048
  

!                                                 Initial               Final
!                                                Year/DOY            Year/DOY
!                                                  16-297              16-297
! SOIL C BALANCE                                 --------- kg[C]/ha ---------
!  SOIL & SURFACE ORGANIC C
!   Soil Organic C                              310025.59           309567.84
!   Surface Organic C                                0.00                0.00
!   Soil Litter C                                 4080.00             1656.33
!   Surface Litter C                                 0.00                0.00
!   Soil methane C stored                            0.00                0.00
!                                                --------            --------
!   Total C in Soil and Surface Layers          314105.59           311224.19
!  ADDITIONS AND REMOVALS:
!   C in Harvest Residues from Previous              0.00
!   C from Organic Applications                      0.00
!   C in returned senesced material                  0.00
!   CO2-C emitted                                 2881.45
!   CH4-C emitted                                    0.00
!   CH4-C leached                                    0.00
!   CH4-C plant uptake                               0.00
!                                                --------            --------
! TOTAL C BALANCE                               314105.59           314105.62
!   Balance                                                             0.040
