*Soil Organic Matter daily output file

*DSSAT Cropping System Model Ver. 4.8.5.000 -release  MAR 01, 2026 09:34:40

*RUN   1        : 1                         WHAPS048 TUDU1701    1
 MODEL          : WHAPS048 - Wheat
 EXPERIMENT     : TUDU1701 WH
 DATA PATH      :
 TREATMENT  1   : 1                         WHAPS048
  
@YEAR DOY   DAS    OMAC    SCDD    SOCD    SC0D    SCTD   SOMCT    LCTD    ONAC    SNDD    SOND    SN0D    SNTD   SOMNT    LNTD
   16 297     0       0   31829  314106       0  314106  310026  4080.0    0.00  1073.8 16963.5    0.00 16963.5 16871.7   91.80
   16 298     1       0   31427  314065       0  314065  310028  4036.4    0.00  1058.3 16963.6    0.00 16963.6 16871.6   92.02
   16 299     2       0   31442  314022       0  314022  310031  3990.7    0.00  1058.9 16963.7    0.00 16963.7 16871.4   92.22
   16 300     3       0   31446  313981       0  313981  310034  3946.9    0.00  1059.0 16963.7    0.00 16963.7 16871.3   92.38
   16 301     4       0   31450  313945       0  313945  310036  3908.7    0.00  1059.0 16963.7    0.00 16963.7 16871.2   92.50
   16 302     5       0   31452  313917       0  313917  310037  3879.8    0.00  1059.1 16963.6    0.00 16963.6 16871.1   92.58
   16 303     6       0   31456  313897       0  313897  310038  3859.2    0.00  1059.2 16963.6    0.00 16963.6 16870.9   92.62
   16 304     7       0   31457  313882       0  313882  310037  3844.8    0.00  1059.2 16963.5    0.00 16963.5 16870.8   92.65
   16 305     8       0   31458  313873       0  313873  310037  3835.8    0.00  1059.2 16963.4    0.00 16963.4 16870.7   92.66
   16 306     9       0   31459  313866       0  313866  310036  3830.2    0.00  1059.3 16963.3    0.00 16963.3 16870.6   92.67
   16 307    10       0   31465  313862       0  313862  310035  3827.1    0.00  1059.5 16963.2    0.00 16963.2 16870.5   92.67
   16 308    11       0   31465  313858       0  313858  310034  3824.1    0.00  1059.5 16963.1    0.00 16963.1 16870.4   92.67
   16 309    12       0   31466  313856       0  313856  310033  3823.1    0.00  1059.5 16963.0    0.00 16963.0 16870.3   92.67
   16 310    13       0   31526  313855       0  313855  310032  3822.4    0.00  1061.8 16962.9    0.00 16962.9 16870.3   92.67
   16 311    14       0   31569  313853       0  313853  310032  3821.6    0.00  1063.5 16962.9    0.00 16962.9 16870.2   92.66
   16 312    15       0   31570  313851       0  313851  310031  3820.7    0.00  1063.5 16962.8    0.00 16962.8 16870.1   92.66
   16 313    16       0   31571  313850       0  313850  310030  3820.1    0.00  1063.6 16962.7    0.00 16962.7 16870.1   92.66
   16 314    17       0   31586  313849       0  313849  310030  3819.7    0.00  1064.1 16962.7    0.00 16962.7 16870.0   92.66
   16 315    18       0   31616  313848       0  313848  310029  3819.2    0.00  1065.3 16962.6    0.00 16962.6 16870.0   92.66
   16 316    19       0   31638  313848       0  313848  310029  3818.9    0.00  1066.1 16962.6    0.00 16962.6 16869.9   92.66
   16 317    20       0   31638  313847       0  313847  310028  3818.7    0.00  1066.1 16962.5    0.00 16962.5 16869.9   92.66
   16 318    21       0   31638  313846       0  313846  310028  3818.4    0.00  1066.1 16962.5    0.00 16962.5 16869.9   92.65
   16 319    22       0   31638  313846       0  313846  310028  3818.2    0.00  1066.1 16962.5    0.00 16962.5 16869.8   92.65
   16 320    23       0   31657  313845       0  313845  310027  3818.1    0.00  1066.9 16962.5    0.00 16962.5 16869.8   92.65
   16 321    24       0   31684  313845       0  313845  310027  3818.0    0.00  1067.9 16962.4    0.00 16962.4 16869.8   92.65
   16 322    25       0   31685  313845       0  313845  310027  3817.8    0.00  1067.9 16962.4    0.00 16962.4 16869.8   92.65
   16 323    26       0   31704  313844       0  313844  310027  3817.5    0.00  1068.7 16962.4    0.00 16962.4 16869.7   92.65
   16 324    27       0   31722  313842       0  313842  310026  3816.5    0.00  1069.3 16962.3    0.00 16962.3 16869.7   92.65
   16 325    28       0   31722  313838       0  313838  310025  3813.2    0.00  1069.3 16962.2    0.00 16962.2 16869.6   92.65
   16 326    29       0   31722  313832       0  313832  310024  3807.9    0.00  1069.4 16962.1    0.00 16962.1 16869.5   92.65
   16 327    30       0   31723  313825       0  313825  310023  3802.2    0.00  1069.4 16962.0    0.00 16962.0 16869.4   92.65
   16 328    31       0   31723  313819       0  313819  310022  3796.3    0.00  1069.4 16961.9    0.00 16961.9 16869.3   92.65
   16 329    32       0   31724  313813       0  313813  310021  3792.0    0.00  1069.4 16961.8    0.00 16961.8 16869.2   92.65
   16 330    33       0   31724  313807       0  313807  310021  3786.0    0.00  1069.4 16961.7    0.00 16961.7 16869.1   92.64
   16 331    34       0   31725  313798       0  313798  310020  3778.4    0.00  1069.4 16961.6    0.00 16961.6 16869.0   92.64
   16 332    35       0   31726  313791       0  313791  310019  3772.2    0.00  1069.5 16961.5    0.00 16961.5 16868.9   92.64
   16 333    36       0   31726  313788       0  313788  310018  3769.8    0.00  1069.5 16961.4    0.00 16961.4 16868.8   92.63
   16 334    37       0   31726  313787       0  313787  310017  3769.3    0.00  1069.5 16961.4    0.00 16961.4 16868.7   92.63
   16 335    38       0   31726  313786       0  313786  310017  3769.2    0.00  1069.5 16961.3    0.00 16961.3 16868.7   92.63
   16 336    39       0   31726  313786       0  313786  310017  3769.2    0.00  1069.5 16961.3    0.00 16961.3 16868.7   92.63
   16 337    40       0   31729  313786       0  313786  310017  3769.1    0.00  1069.6 16961.3    0.00 16961.3 16868.7   92.63
   16 338    41       0   31729  313786       0  313786  310017  3769.1    0.00  1069.6 16961.3    0.00 16961.3 16868.7   92.63
   16 339    42       0   31729  313786       0  313786  310017  3769.1    0.00  1069.6 16961.3    0.00 16961.3 16868.7   92.63
   16 340    43       0   31729  313786       0  313786  310017  3769.1    0.00  1069.6 16961.3    0.00 16961.3 16868.7   92.63
   16 341    44       0   31729  313786       0  313786  310017  3769.1    0.00  1069.6 16961.3    0.00 16961.3 16868.7   92.63
   16 342    45       0   31729  313786       0  313786  310017  3769.1    0.00  1069.6 16961.3    0.00 16961.3 16868.7   92.63
   16 343    46       0   31729  313786       0  313786  310017  3769.1    0.00  1069.6 16961.3    0.00 16961.3 16868.7   92.63
   16 344    47       0   31729  313786       0  313786  310017  3769.1    0.00  1069.6 16961.3    0.00 16961.3 16868.7   92.63
   16 345    48       0   31729  313786       0  313786  310017  3769.1    0.00  1069.6 16961.3    0.00 16961.3 16868.7   92.63
   16 346    49       0   31732  313786       0  313786  310017  3769.1    0.00  1069.7 16961.3    0.00 16961.3 16868.7   92.63
   16 347    50       0   31733  313786       0  313786  310017  3769.1    0.00  1069.7 16961.3    0.00 16961.3 16868.7   92.63
   16 348    51       0   31733  313786       0  313786  310017  3769.1    0.00  1069.7 16961.3    0.00 16961.3 16868.7   92.63
   16 349    52       0   31734  313786       0  313786  310017  3769.0    0.00  1069.7 16961.3    0.00 16961.3 16868.6   92.63
   16 350    53       0   31734  313786       0  313786  310017  3768.9    0.00  1069.7 16961.3    0.00 16961.3 16868.6   92.63
   16 351    54       0   31734  313785       0  313785  310016  3768.8    0.00  1069.7 16961.2    0.00 16961.2 16868.6   92.63
   16 352    55       0   31734  313785       0  313785  310016  3768.8    0.00  1069.7 16961.2    0.00 16961.2 16868.6   92.63
   16 353    56       0   31734  313785       0  313785  310016  3768.7    0.00  1069.8 16961.2    0.00 16961.2 16868.6   92.63
   16 354    57       0   31734  313785       0  313785  310016  3768.7    0.00  1069.8 16961.2    0.00 16961.2 16868.6   92.62
   16 355    58       0   31734  313785       0  313785  310016  3768.7    0.00  1069.8 16961.2    0.00 16961.2 16868.6   92.62
   16 356    59       0   31734  313785       0  313785  310016  3768.7    0.00  1069.8 16961.2    0.00 16961.2 16868.6   92.62
   16 357    60       0   31735  313785       0  313785  310016  3768.7    0.00  1069.8 16961.2    0.00 16961.2 16868.6   92.62
   16 358    61       0   31736  313785       0  313785  310016  3768.7    0.00  1069.8 16961.2    0.00 16961.2 16868.6   92.62
   16 359    62       0   31738  313785       0  313785  310016  3768.7    0.00  1069.9 16961.2    0.00 16961.2 16868.6   92.62
   16 360    63       0   31738  313785       0  313785  310016  3768.7    0.00  1069.9 16961.2    0.00 16961.2 16868.6   92.62
   16 361    64       0   31740  313785       0  313785  310016  3768.7    0.00  1070.0 16961.2    0.00 16961.2 16868.6   92.62
   16 362    65       0   31740  313784       0  313784  310016  3768.5    0.00  1070.0 16961.2    0.00 16961.2 16868.6   92.62
   16 363    66       0   31740  313784       0  313784  310016  3768.3    0.00  1070.0 16961.1    0.00 16961.1 16868.5   92.62
   16 364    67       0   31740  313783       0  313783  310015  3768.0    0.00  1070.0 16961.1    0.00 16961.1 16868.5   92.62
   16 365    68       0   31740  313783       0  313783  310015  3767.8    0.00  1070.0 16961.1    0.00 16961.1 16868.5   92.62
   16 366    69       0   31740  313783       0  313783  310015  3767.8    0.00  1070.0 16961.1    0.00 16961.1 16868.4   92.62
   17 001    70       0   31740  313783       0  313783  310015  3767.8    0.00  1070.0 16961.1    0.00 16961.1 16868.4   92.62
   17 002    71       0   31742  313783       0  313783  310015  3767.8    0.00  1070.1 16961.1    0.00 16961.1 16868.4   92.62
   17 003    72       0   31742  313783       0  313783  310015  3767.8    0.00  1070.1 16961.1    0.00 16961.1 16868.4   92.62
   17 004    73       0   31744  313783       0  313783  310015  3767.8    0.00  1070.1 16961.1    0.00 16961.1 16868.4   92.62
   17 005    74       0   31744  313783       0  313783  310015  3767.8    0.00  1070.1 16961.1    0.00 16961.1 16868.4   92.62
   17 006    75       0   31744  313783       0  313783  310015  3767.8    0.00  1070.1 16961.1    0.00 16961.1 16868.4   92.62
   17 007    76       0   31750  313783       0  313783  310015  3767.8    0.00  1070.4 16961.1    0.00 16961.1 16868.4   92.62
   17 008    77       0   31751  313783       0  313783  310015  3767.8    0.00  1070.4 16961.1    0.00 16961.1 16868.4   92.62
   17 009    78       0   31751  313783       0  313783  310015  3767.8    0.00  1070.4 16961.1    0.00 16961.1 16868.4   92.62
   17 010    79       0   31751  313783       0  313783  310015  3767.8    0.00  1070.4 16961.1    0.00 16961.1 16868.4   92.62
   17 011    80       0   31753  313783       0  313783  310015  3767.8    0.00  1070.5 16961.1    0.00 16961.1 16868.4   92.62
   17 012    81       0   31771  313783       0  313783  310015  3767.8    0.00  1071.2 16961.1    0.00 16961.1 16868.4   92.62
   17 013    82       0   31771  313783       0  313783  310015  3767.8    0.00  1071.2 16961.1    0.00 16961.1 16868.4   92.62
   17 014    83       0   31771  313783       0  313783  310015  3767.8    0.00  1071.2 16961.1    0.00 16961.1 16868.4   92.62
   17 015    84       0   31771  313783       0  313783  310015  3767.8    0.00  1071.2 16961.1    0.00 16961.1 16868.4   92.62
   17 016    85       0   31772  313783       0  313783  310015  3767.8    0.00  1071.2 16961.1    0.00 16961.1 16868.4   92.62
   17 017    86       0   31772  313783       0  313783  310015  3767.8    0.00  1071.2 16961.1    0.00 16961.1 16868.4   92.62
   17 018    87       0   31772  313783       0  313783  310015  3767.8    0.00  1071.2 16961.1    0.00 16961.1 16868.4   92.62
   17 019    88       0   31772  313783       0  313783  310015  3767.8    0.00  1071.2 16961.1    0.00 16961.1 16868.4   92.62
   17 020    89       0   31772  313783       0  313783  310015  3767.8    0.00  1071.2 16961.1    0.00 16961.1 16868.4   92.62
   17 021    90       0   31772  313783       0  313783  310015  3767.8    0.00  1071.2 16961.1    0.00 16961.1 16868.4   92.62
   17 022    91       0   31772  313783       0  313783  310015  3767.8    0.00  1071.2 16961.1    0.00 16961.1 16868.4   92.62
   17 023    92       0   31772  313783       0  313783  310015  3767.8    0.00  1071.2 16961.1    0.00 16961.1 16868.4   92.62
   17 024    93       0   31772  313783       0  313783  310015  3767.8    0.00  1071.2 16961.1    0.00 16961.1 16868.4   92.62
   17 025    94       0   31772  313783       0  313783  310015  3767.8    0.00  1071.2 16961.1    0.00 16961.1 16868.4   92.62
   17 026    95       0   31772  313783       0  313783  310015  3767.8    0.00  1071.2 16961.1    0.00 16961.1 16868.4   92.62
   17 027    96       0   31772  313783       0  313783  310015  3767.8    0.00  1071.2 16961.1    0.00 16961.1 16868.4   92.62
   17 028    97       0   31772  313783       0  313783  310015  3767.8    0.00  1071.2 16961.1    0.00 16961.1 16868.4   92.62
   17 029    98       0   31772  313783       0  313783  310015  3767.8    0.00  1071.2 16961.1    0.00 16961.1 16868.4   92.62
   17 030    99       0   31777  313783       0  313783  310015  3767.8    0.00  1071.4 16961.1    0.00 16961.1 16868.4   92.62
   17 031   100       0   31784  313783       0  313783  310015  3767.8    0.00  1071.7 16961.1    0.00 16961.1 16868.4   92.62
   17 032   101       0   31784  313783       0  313783  310015  3767.8    0.00  1071.7 16961.1    0.00 16961.1 16868.4   92.62
   17 033   102       0   31784  313783       0  313783  310015  3767.8    0.00  1071.7 16961.1    0.00 16961.1 16868.4   92.62
   17 034   103       0   31784  313783       0  313783  310015  3767.8    0.00  1071.7 16961.1    0.00 16961.1 16868.4   92.62
   17 035   104       0   31785  313783       0  313783  310015  3767.8    0.00  1071.7 16961.1    0.00 16961.1 16868.4   92.62
   17 036   105       0   31785  313783       0  313783  310015  3767.8    0.00  1071.7 16961.1    0.00 16961.1 16868.4   92.62
   17 037   106       0   31785  313783       0  313783  310015  3767.8    0.00  1071.7 16961.1    0.00 16961.1 16868.4   92.62
   17 038   107       0   31785  313783       0  313783  310015  3767.8    0.00  1071.7 16961.1    0.00 16961.1 16868.4   92.62
   17 039   108       0   31785  313782       0  313782  310015  3767.8    0.00  1071.7 16961.1    0.00 16961.1 16868.4   92.62
   17 040   109       0   31785  313782       0  313782  310015  3767.8    0.00  1071.7 16961.1    0.00 16961.1 16868.4   92.62
   17 041   110       0   31785  313782       0  313782  310015  3767.8    0.00  1071.7 16961.1    0.00 16961.1 16868.4   92.62
   17 042   111       0   31785  313782       0  313782  310015  3767.8    0.00  1071.7 16961.1    0.00 16961.1 16868.4   92.62
   17 043   112       0   31785  313782       0  313782  310015  3767.8    0.00  1071.7 16961.1    0.00 16961.1 16868.4   92.62
   17 044   113       0   31785  313782       0  313782  310015  3767.8    0.00  1071.7 16961.1    0.00 16961.1 16868.4   92.62
   17 045   114       0   31785  313782       0  313782  310015  3767.8    0.00  1071.7 16961.1    0.00 16961.1 16868.4   92.62
   17 046   115       0   31785  313782       0  313782  310015  3767.8    0.00  1071.7 16961.1    0.00 16961.1 16868.4   92.62
   17 047   116       0   31788  313782       0  313782  310015  3767.8    0.00  1071.8 16961.1    0.00 16961.1 16868.4   92.62
   17 048   117       0   31793  313782       0  313782  310015  3767.8    0.00  1072.0 16961.1    0.00 16961.1 16868.4   92.62
   17 049   118       0   31793  313782       0  313782  310015  3767.8    0.00  1072.0 16961.1    0.00 16961.1 16868.4   92.62
   17 050   119       0   31794  313782       0  313782  310015  3767.8    0.00  1072.0 16961.1    0.00 16961.1 16868.4   92.62
   17 051   120       0   31796  313782       0  313782  310015  3767.8    0.00  1072.1 16961.1    0.00 16961.1 16868.4   92.62
   17 052   121       0   31801  313782       0  313782  310015  3767.8    0.00  1072.3 16961.1    0.00 16961.1 16868.4   92.62
   17 053   122       0   31801  313782       0  313782  310015  3767.8    0.00  1072.3 16961.1    0.00 16961.1 16868.4   92.62
   17 054   123       0   31801  313782       0  313782  310014  3767.6    0.00  1072.3 16961.0    0.00 16961.0 16868.4   92.61
   17 055   124       0   31802  313771       0  313771  310015  3756.3    0.00  1072.3 16961.0    0.00 16961.0 16868.4   92.62
   17 056   125       0   31803  313758       0  313758  310016  3741.6    0.00  1072.4 16961.0    0.00 16961.0 16868.3   92.63
   17 057   126       0   31804  313749       0  313749  310017  3732.0    0.00  1072.4 16960.9    0.00 16960.9 16868.3   92.63
   17 058   127       0   31805  313743       0  313743  310017  3726.5    0.00  1072.4 16960.9    0.00 16960.9 16868.3   92.63
   17 059   128       0   31859  313742       0  313742  310016  3726.0    0.00  1074.5 16960.9    0.00 16960.9 16868.3   92.63
   17 060   129       0   31859  313742       0  313742  310016  3726.0    0.00  1074.5 16960.9    0.00 16960.9 16868.3   92.63
   17 061   130       0   31859  313742       0  313742  310016  3726.0    0.00  1074.5 16960.9    0.00 16960.9 16868.2   92.63
   17 062   131       0   31859  313742       0  313742  310016  3726.0    0.00  1074.5 16960.9    0.00 16960.9 16868.2   92.63
   17 063   132       0   31859  313742       0  313742  310016  3726.0    0.00  1074.5 16960.9    0.00 16960.9 16868.2   92.63
   17 064   133       0   31859  313742       0  313742  310016  3725.9    0.00  1074.5 16960.9    0.00 16960.9 16868.2   92.63
   17 065   134       0   31859  313739       0  313739  310016  3723.3    0.00  1074.5 16960.8    0.00 16960.8 16868.2   92.63
   17 066   135       0   31859  313736       0  313736  310016  3719.3    0.00  1074.5 16960.8    0.00 16960.8 16868.2   92.63
   17 067   136       0   31860  313733       0  313733  310016  3716.4    0.00  1074.5 16960.8    0.00 16960.8 16868.2   92.63
   17 068   137       0   31860  313729       0  313729  310017  3712.8    0.00  1074.5 16960.8    0.00 16960.8 16868.2   92.63
   17 069   138       0   31860  313727       0  313727  310017  3710.9    0.00  1074.5 16960.8    0.00 16960.8 16868.1   92.63
   17 070   139       0   31860  313727       0  313727  310016  3710.9    0.00  1074.5 16960.8    0.00 16960.8 16868.1   92.63
   17 071   140       0   31860  313727       0  313727  310016  3710.9    0.00  1074.5 16960.8    0.00 16960.8 16868.1   92.63
   17 072   141       0   31860  313727       0  313727  310016  3710.8    0.00  1074.5 16960.7    0.00 16960.7 16868.1   92.63
   17 073   142       0   31860  313727       0  313727  310016  3710.8    0.00  1074.5 16960.7    0.00 16960.7 16868.1   92.62
   17 074   143       0   31860  313727       0  313727  310016  3710.8    0.00  1074.5 16960.7    0.00 16960.7 16868.1   92.62
   17 075   144       0   31860  313727       0  313727  310016  3710.8    0.00  1074.5 16960.7    0.00 16960.7 16868.1   92.62
   17 076   145       0   31860  313726       0  313726  310016  3710.2    0.00  1074.5 16960.7    0.00 16960.7 16868.1   92.62
   17 077   146       0   31861  313722       0  313722  310016  3706.1    0.00  1074.5 16960.7    0.00 16960.7 16868.1   92.62
   17 078   147       0   31861  313714       0  313714  310016  3698.0    0.00  1074.5 16960.7    0.00 16960.7 16868.0   92.62
   17 079   148       0   31862  313702       0  313702  310017  3684.6    0.00  1074.6 16960.6    0.00 16960.6 16868.0   92.62
   17 080   149       0   31864  313686       0  313686  310017  3668.7    0.00  1074.6 16960.5    0.00 16960.5 16867.9   92.61
   17 081   150       0   31865  313668       0  313668  310018  3649.7    0.00  1074.6 16960.5    0.00 16960.5 16867.9   92.60
   17 082   151       0   31867  313651       0  313651  310019  3632.3    0.00  1074.7 16960.4    0.00 16960.4 16867.8   92.58
   17 083   152       0   31868  313635       0  313635  310020  3615.2    0.00  1074.7 16960.3    0.00 16960.3 16867.8   92.56
   17 084   153       0   31869  313622       0  313622  310020  3602.3    0.00  1074.7 16960.3    0.00 16960.3 16867.7   92.54
   17 085   154       0   31870  313612       0  313612  310020  3591.9    0.00  1074.7 16960.2    0.00 16960.2 16867.7   92.53
   17 086   155       0   31871  313606       0  313606  310020  3585.3    0.00  1074.8 16960.2    0.00 16960.2 16867.6   92.51
   17 087   156       0   31871  313599       0  313599  310020  3578.2    0.00  1074.8 16960.1    0.00 16960.1 16867.6   92.50
   17 088   157       0   31872  313593       0  313593  310020  3572.3    0.00  1074.8 16960.1    0.00 16960.1 16867.6   92.49
   17 089   158       0   31872  313584       0  313584  310020  3564.6    0.00  1074.8 16960.0    0.00 16960.0 16867.5   92.46
   17 090   159       0   31873  313576       0  313576  310019  3556.8    0.00  1074.8 16959.9    0.00 16959.9 16867.4   92.44
   17 091   160       0   31874  313565       0  313565  310018  3546.8    0.00  1074.8 16959.7    0.00 16959.7 16867.3   92.41
   17 092   161       0   31875  313552       0  313552  310016  3536.2    0.00  1074.9 16959.5    0.00 16959.5 16867.2   92.37
   17 093   162       0   31876  313539       0  313539  310014  3525.1    0.00  1074.9 16959.3    0.00 16959.3 16867.0   92.32
   17 094   163       0   31877  313524       0  313524  310012  3512.1    0.00  1074.9 16959.1    0.00 16959.1 16866.8   92.28
   17 095   164       0   31877  313511       0  313511  310011  3500.3    0.00  1074.9 16958.9    0.00 16958.9 16866.7   92.24
   17 096   165       0   31878  313500       0  313500  310010  3490.3    0.00  1074.9 16958.8    0.00 16958.8 16866.6   92.20
   17 097   166       0   31879  313491       0  313491  310009  3482.7    0.00  1074.9 16958.6    0.00 16958.6 16866.5   92.17
   17 098   167       0   31879  313485       0  313485  310008  3477.0    0.00  1075.0 16958.5    0.00 16958.5 16866.4   92.15
   17 099   168       0   31879  313479       0  313479  310007  3472.1    0.00  1075.0 16958.5    0.00 16958.5 16866.3   92.12
   17 100   169       0   31880  313473       0  313473  310006  3466.7    0.00  1075.0 16958.3    0.00 16958.3 16866.2   92.10
   17 101   170       0   31880  313465       0  313465  310004  3460.6    0.00  1075.0 16958.2    0.00 16958.2 16866.1   92.06
   17 102   171       0   31881  313457       0  313457  310002  3454.5    0.00  1075.0 16958.0    0.00 16958.0 16866.0   92.03
   17 103   172       0   31881  313449       0  313449  310000  3448.7    0.00  1075.0 16957.8    0.00 16957.8 16865.8   92.00
   17 104   173       0   31882  313442       0  313442  309999  3443.3    0.00  1075.0 16957.7    0.00 16957.7 16865.7   91.96
   17 105   174       0   31882  313436       0  313436  309997  3438.7    0.00  1075.0 16957.5    0.00 16957.5 16865.6   91.94
   17 106   175       0   31882  313430       0  313430  309996  3434.2    0.00  1075.0 16957.4    0.00 16957.4 16865.5   91.91
   17 107   176       0   31882  313423       0  313423  309995  3428.5    0.00  1075.0 16957.3    0.00 16957.3 16865.4   91.88
   17 108   177       0   31883  313417       0  313417  309994  3422.5    0.00  1075.0 16957.2    0.00 16957.2 16865.4   91.86
   17 109   178       0   31883  313412       0  313412  309994  3417.8    0.00  1075.1 16957.2    0.00 16957.2 16865.3   91.84
   17 110   179       0   31883  313410       0  313410  309994  3415.8    0.00  1075.1 16957.2    0.00 16957.2 16865.3   91.83
   17 111   180       0   31883  313410       0  313410  309994  3415.8    0.00  1075.1 16957.2    0.00 16957.2 16865.3   91.83
   17 112   181       0   31883  313410       0  313410  309994  3415.8    0.00  1075.1 16957.2    0.00 16957.2 16865.3   91.83
   17 113   182       0   31883  313410       0  313410  309994  3415.8    0.00  1075.1 16957.2    0.00 16957.2 16865.3   91.83
   17 114   183       0   31883  313410       0  313410  309994  3415.8    0.00  1075.1 16957.2    0.00 16957.2 16865.3   91.83
   17 115   184       0   31883  313410       0  313410  309994  3415.8    0.00  1075.1 16957.2    0.00 16957.2 16865.3   91.83
   17 116   185       0   31883  313409       0  313409  309994  3415.4    0.00  1075.1 16957.1    0.00 16957.1 16865.3   91.83
   17 117   186       0   31883  313409       0  313409  309994  3415.1    0.00  1075.1 16957.1    0.00 16957.1 16865.3   91.83
   17 118   187       0   31883  313409       0  313409  309994  3415.1    0.00  1075.1 16957.1    0.00 16957.1 16865.3   91.83
   17 119   188       0   31883  313409       0  313409  309994  3415.1    0.00  1075.1 16957.1    0.00 16957.1 16865.3   91.83
   17 120   189       0   31883  313409       0  313409  309994  3415.1    0.00  1075.1 16957.1    0.00 16957.1 16865.3   91.83
   17 121   190       0   31883  313409       0  313409  309994  3415.1    0.00  1075.1 16957.1    0.00 16957.1 16865.3   91.83
   17 122   191       0   31883  313408       0  313408  309993  3414.9    0.00  1075.1 16957.1    0.00 16957.1 16865.3   91.83
   17 123   192       0   31883  313406       0  313406  309992  3414.0    0.00  1075.0 16957.0    0.00 16957.0 16865.2   91.82
   17 124   193       0   31883  313402       0  313402  309990  3412.2    0.00  1075.0 16956.9    0.00 16956.9 16865.1   91.80
   17 125   194       0   31883  313398       0  313398  309988  3409.8    0.00  1075.0 16956.8    0.00 16956.8 16865.0   91.78
   17 126   195       0   31882  313392       0  313392  309985  3406.8    0.00  1075.0 16956.6    0.00 16956.6 16864.8   91.75
   17 127   196       0   31882  313385       0  313385  309982  3403.3    0.00  1075.0 16956.4    0.00 16956.4 16864.6   91.72
   17 128   197       0   31882  313378       0  313378  309978  3399.4    0.00  1075.0 16956.1    0.00 16956.1 16864.5   91.69
   17 129   198       0   31882  313370       0  313370  309975  3395.1    0.00  1075.0 16955.9    0.00 16955.9 16864.3   91.65
   17 130   199       0   31881  313363       0  313363  309972  3390.3    0.00  1075.0 16955.7    0.00 16955.7 16864.1   91.62
   17 131   200       0   31881  313356       0  313356  309970  3385.9    0.00  1075.0 16955.6    0.00 16955.6 16864.0   91.59
   17 132   201       0   31881  313350       0  313350  309967  3382.3    0.00  1075.0 16955.4    0.00 16955.4 16863.8   91.56
   17 133   202       0   31881  313342       0  313342  309964  3378.5    0.00  1075.0 16955.2    0.00 16955.2 16863.6   91.52
   17 134   203       0   31880  313334       0  313334  309960  3374.2    0.00  1074.9 16954.9    0.00 16954.9 16863.4   91.48
   17 135   204       0   31880  313324       0  313324  309955  3369.1    0.00  1074.9 16954.6    0.00 16954.6 16863.2   91.43
   17 136   205       0   31880  313312       0  313312  309950  3362.5    0.00  1074.9 16954.2    0.00 16954.2 16862.9   91.37
   17 137   206       0   31879  313299       0  313299  309944  3354.7    0.00  1074.9 16953.9    0.00 16953.9 16862.6   91.30
   17 138   207       0   31879  313286       0  313286  309939  3347.4    0.00  1074.9 16953.5    0.00 16953.5 16862.3   91.24
   17 139   208       0   31879  313274       0  313274  309933  3340.3    0.00  1074.9 16953.1    0.00 16953.1 16861.9   91.17
   17 140   209       0   31878  313261       0  313261  309927  3333.3    0.00  1074.8 16952.7    0.00 16952.7 16861.6   91.10
   17 141   210       0   31878  313248       0  313248  309922  3326.5    0.00  1074.8 16952.3    0.00 16952.3 16861.3   91.03
   17 142   211       0   31877  313236       0  313236  309916  3319.7    0.00  1074.8 16951.9    0.00 16951.9 16861.0   90.96
   17 143   212       0   31877  313224       0  313224  309911  3312.9    0.00  1074.8 16951.6    0.00 16951.6 16860.7   90.89
   17 144   213       0   31877  313212       0  313212  309906  3306.0    0.00  1074.8 16951.2    0.00 16951.2 16860.4   90.83
   17 145   214       0   31877  313193       0  313193  309903  3289.3    0.00  1074.8 16950.9    0.00 16950.9 16860.2   90.74
   17 146   215       0   31877  313173       0  313173  309900  3273.1    0.00  1074.8 16950.6    0.00 16950.6 16860.0   90.65
   17 147   216       0   31877  313155       0  313155  309896  3258.4    0.00  1074.8 16950.3    0.00 16950.3 16859.7   90.55
   17 148   217       0   31877  313138       0  313138  309892  3245.6    0.00  1074.8 16949.9    0.00 16949.9 16859.4   90.46
   17 149   218       0   31877  313122       0  313122  309887  3234.6    0.00  1074.8 16949.5    0.00 16949.5 16859.1   90.37
   17 150   219       0   31877  313106       0  313106  309882  3224.8    0.00  1074.8 16949.1    0.00 16949.1 16858.8   90.27
   17 151   220       0   31878  313071       0  313071  309879  3192.5    0.00  1074.8 16948.6    0.00 16948.6 16858.5   90.08
   17 152   221       0   31880  313032       0  313032  309876  3155.3    0.00  1074.8 16948.0    0.00 16948.0 16858.2   89.82
   17 153   222       0   31881  312996       0  312996  309872  3123.7    0.00  1074.9 16947.4    0.00 16947.4 16857.9   89.57
   17 154   223       0   31883  312965       0  312965  309868  3097.5    0.00  1074.9 16946.8    0.00 16946.8 16857.5   89.35
   17 155   224       0   31888  312904       0  312904  309870  3033.5    0.00  1075.0 16946.2    0.00 16946.2 16857.3   88.86
   17 156   225       0   31892  312851       0  312851  309872  2978.6    0.00  1075.1 16945.6    0.00 16945.6 16857.2   88.39
   17 157   226       0   31896  312800       0  312800  309874  2925.8    0.00  1075.3 16945.0    0.00 16945.0 16857.1   87.90
   17 158   227       0   31901  312753       0  312753  309876  2876.6    0.00  1075.4 16944.4    0.00 16944.4 16857.0   87.42
   17 159   228       0   31905  312712       0  312712  309879  2832.9    0.00  1075.5 16943.9    0.00 16943.9 16856.9   86.96
   17 160   229       0   31908  312681       0  312681  309879  2801.7    0.00  1075.6 16943.4    0.00 16943.4 16856.8   86.62
   17 161   230       0   31911  312652       0  312652  309880  2772.1    0.00  1075.7 16943.0    0.00 16943.0 16856.7   86.29
   17 162   231       0   31914  312626       0  312626  309879  2746.9    0.00  1075.8 16942.5    0.00 16942.5 16856.5   86.00
   17 163   232       0   31915  312604       0  312604  309877  2726.9    0.00  1075.8 16942.1    0.00 16942.1 16856.3   85.75
   17 164   233       0   31917  312581       0  312581  309874  2706.8    0.00  1075.9 16941.6    0.00 16941.6 16856.1   85.49
   17 165   234       0   31918  312555       0  312555  309871  2683.9    0.00  1075.9 16941.0    0.00 16941.0 16855.9   85.19
   17 166   235       0   31920  312529       0  312529  309869  2660.4    0.00  1076.0 16940.5    0.00 16940.5 16855.6   84.87
   17 167   236       0   31923  312499       0  312499  309867  2631.4    0.00  1076.0 16939.9    0.00 16939.9 16855.4   84.47
   17 168   237       0   31924  312475       0  312475  309865  2610.2    0.00  1076.1 16939.3    0.00 16939.3 16855.2   84.17
   17 169   238       0   31926  312457       0  312457  309862  2594.7    0.00  1076.1 16938.9    0.00 16938.9 16854.9   83.95
   17 170   239       0   31926  312442       0  312442  309859  2583.9    0.00  1076.2 16938.4    0.00 16938.4 16854.7   83.79
   17 171   240       0   31927  312430       0  312430  309855  2574.7    0.00  1076.2 16938.0    0.00 16938.0 16854.4   83.65
   17 172   241       0   31928  312418       0  312418  309851  2566.9    0.00  1076.2 16937.7    0.00 16937.7 16854.1   83.52
   17 173   242       0   31928  312408       0  312408  309847  2561.1    0.00  1076.2 16937.3    0.00 16937.3 16853.8   83.43
   17 174   243       0   31929  312387       0  312387  309844  2542.3    0.00  1076.2 16936.7    0.00 16936.7 16853.6   83.14
   17 175   244       0   31929  312371       0  312371  309840  2531.3    0.00  1076.2 16936.2    0.00 16936.2 16853.3   82.96
   17 176   245       0   31929  312361       0  312361  309835  2526.0    0.00  1076.2 16935.8    0.00 16935.8 16852.9   82.87
   17 177   246       0   31929  312351       0  312351  309831  2520.6    0.00  1076.2 16935.4    0.00 16935.4 16852.6   82.78
   17 178   247       0   31929  312334       0  312334  309828  2506.4    0.00  1076.2 16934.9    0.00 16934.9 16852.4   82.54
   17 179   248       0   31931  312305       0  312305  309827  2477.8    0.00  1076.3 16934.3    0.00 16934.3 16852.2   82.08
   17 180   249       0   31936  312256       0  312256  309831  2424.3    0.00  1076.4 16933.4    0.00 16933.4 16852.2   81.24
   17 181   250       0   31940  312206       0  312206  309836  2370.1    0.00  1076.6 16932.5    0.00 16932.5 16852.2   80.34
   17 182   251       0   31944  312164       0  312164  309838  2326.4    0.00  1076.7 16931.7    0.00 16931.7 16852.1   79.59
   17 183   252       0   31947  312132       0  312132  309838  2293.5    0.00  1076.8 16931.0    0.00 16931.0 16852.0   79.01
   17 184   253       0   31949  312106       0  312106  309838  2268.0    0.00  1076.9 16930.4    0.00 16930.4 16851.9   78.54
   17 185   254       0   31951  312085       0  312085  309838  2247.9    0.00  1077.0 16929.9    0.00 16929.9 16851.7   78.17
   17 186   255       0   31952  312069       0  312069  309836  2233.2    0.00  1077.0 16929.4    0.00 16929.4 16851.5   77.89
   17 187   256       0   31953  312057       0  312057  309833  2223.5    0.00  1077.0 16929.0    0.00 16929.0 16851.3   77.70
   17 188   257       0   31954  312048       0  312048  309830  2218.0    0.00  1077.0 16928.7    0.00 16928.7 16851.1   77.60
   17 189   258       0   31953  312041       0  312041  309826  2214.5    0.00  1077.0 16928.4    0.00 16928.4 16850.8   77.52
   17 190   259       0   31953  312035       0  312035  309822  2213.2    0.00  1077.0 16928.0    0.00 16928.0 16850.5   77.49
   17 191   260       0   31958  311985       0  311985  309826  2159.7    0.00  1077.2 16927.0    0.00 16927.0 16850.5   76.46
   17 192   261       0   31963  311934       0  311934  309829  2105.1    0.00  1077.4 16925.9    0.00 16925.9 16850.5   75.35
   17 193   262       0   31968  311885       0  311885  309832  2052.4    0.00  1077.6 16924.7    0.00 16924.7 16850.5   74.24
   17 194   263       0   31972  311838       0  311838  309835  2003.2    0.00  1077.7 16923.6    0.00 16923.6 16850.5   73.16
   17 195   264       0   31976  311801       0  311801  309836  1964.6    0.00  1077.8 16922.7    0.00 16922.7 16850.4   72.29
   17 196   265       0   31979  311765       0  311765  309838  1927.6    0.00  1078.0 16921.8    0.00 16921.8 16850.3   71.43
   17 197   266       0   31982  311734       0  311734  309838  1895.6    0.00  1078.1 16920.9    0.00 16920.9 16850.3   70.66
   17 198   267       0   31984  311708       0  311708  309838  1869.9    0.00  1078.2 16920.2    0.00 16920.2 16850.2   70.04
   17 199   268       0   31986  311687       0  311687  309837  1849.6    0.00  1078.2 16919.6    0.00 16919.6 16850.1   69.55
   17 200   269       0   31987  311669       0  311669  309835  1833.9    0.00  1078.3 16919.1    0.00 16919.1 16849.9   69.16
   17 201   270       0   31988  311653       0  311653  309833  1819.9    0.00  1078.3 16918.5    0.00 16918.5 16849.7   68.80
   17 202   271       0   31989  311638       0  311638  309830  1807.8    0.00  1078.4 16918.0    0.00 16918.0 16849.5   68.49
   17 203   272       0   31990  311624       0  311624  309827  1797.3    0.00  1078.4 16917.5    0.00 16917.5 16849.2   68.22
   17 204   273       0   31990  311611       0  311611  309823  1787.7    0.00  1078.4 16917.0    0.00 16917.0 16849.0   67.97
   17 205   274       0   31991  311599       0  311599  309819  1779.7    0.00  1078.4 16916.5    0.00 16916.5 16848.7   67.76
   17 206   275       0   31991  311584       0  311584  309817  1767.7    0.00  1078.4 16916.0    0.00 16916.0 16848.5   67.45
   17 207   276       0   31994  311554       0  311554  309817  1737.7    0.00  1078.5 16915.1    0.00 16915.1 16848.4   66.67
   17 208   277       0   31995  311531       0  311531  309815  1715.1    0.00  1078.6 16914.4    0.00 16914.4 16848.3   66.07
   17 209   278       0   31996  311509       0  311509  309814  1694.6    0.00  1078.7 16913.7    0.00 16913.7 16848.2   65.52
   17 210   279       0   31998  311486       0  311486  309812  1673.8    0.00  1078.7 16913.0    0.00 16913.0 16848.0   64.95
   17 211   280       0   32000  311464       0  311464  309811  1653.2    0.00  1078.8 16912.3    0.00 16912.3 16847.9   64.38
   17 212   281       0   32002  311438       0  311438  309808  1630.2    0.00  1078.9 16911.4    0.00 16911.4 16847.7   63.74
   17 213   282       0   32003  311412       0  311412  309805  1607.0    0.00  1078.9 16910.6    0.00 16910.6 16847.5   63.09
   17 214   283       0   32006  311374       0  311374  309803  1571.1    0.00  1079.1 16909.3    0.00 16909.3 16847.3   62.07
   17 215   284       0   32008  311340       0  311340  309799  1540.8    0.00  1079.2 16908.2    0.00 16908.2 16847.0   61.18
   17 216   285       0   32011  311301       0  311301  309796  1504.3    0.00  1079.3 16906.9    0.00 16906.9 16846.8   60.11
   17 217   286       0   32013  311266       0  311266  309792  1473.8    0.00  1079.4 16905.7    0.00 16905.7 16846.5   59.19
   17 218   287       0   32015  311235       0  311235  309787  1447.7    0.00  1079.4 16904.6    0.00 16904.6 16846.2   58.39
   17 219   288       0   32016  311209       0  311209  309783  1426.5    0.00  1079.5 16903.6    0.00 16903.6 16845.9   57.73

*DSSAT Cropping System Model Ver. 4.8.5.000 -release  MAR 01, 2026 09:34:40

*RUN   2        : 2                         WHAPS048 TUDU1701    2
 MODEL          : WHAPS048 - Wheat
 EXPERIMENT     : TUDU1701 WH
 DATA PATH      :
 TREATMENT  2   : 2                         WHAPS048
  
@YEAR DOY   DAS    OMAC    SCDD    SOCD    SC0D    SCTD   SOMCT    LCTD    ONAC    SNDD    SOND    SN0D    SNTD   SOMNT    LNTD
   16 297     0       0   31829  314106       0  314106  310026  4080.0    0.00  1073.8 16963.5    0.00 16963.5 16871.7   91.80
   16 298     1       0   31427  314065       0  314065  310028  4036.4    0.00  1058.3 16963.6    0.00 16963.6 16871.6   92.02
   16 299     2       0   31442  314022       0  314022  310031  3990.7    0.00  1058.9 16963.7    0.00 16963.7 16871.4   92.22
   16 300     3       0   31446  313981       0  313981  310034  3946.9    0.00  1059.0 16963.7    0.00 16963.7 16871.3   92.38
   16 301     4       0   31450  313945       0  313945  310036  3908.7    0.00  1059.0 16963.7    0.00 16963.7 16871.2   92.50
   16 302     5       0   31452  313917       0  313917  310037  3879.8    0.00  1059.1 16963.6    0.00 16963.6 16871.1   92.58
   16 303     6       0   31456  313897       0  313897  310038  3859.2    0.00  1059.2 16963.6    0.00 16963.6 16870.9   92.62
   16 304     7       0   31457  313882       0  313882  310037  3844.7    0.00  1059.2 16963.5    0.00 16963.5 16870.8   92.65
   16 305     8       0   31458  313873       0  313873  310037  3835.8    0.00  1059.2 16963.4    0.00 16963.4 16870.7   92.66
   16 306     9       0   31459  313866       0  313866  310036  3830.1    0.00  1059.3 16963.3    0.00 16963.3 16870.6   92.67
   16 307    10       0   31465  313862       0  313862  310035  3827.0    0.00  1059.5 16963.2    0.00 16963.2 16870.5   92.67
   16 308    11       0   31465  313858       0  313858  310034  3824.0    0.00  1059.5 16963.1    0.00 16963.1 16870.4   92.67
   16 309    12       0   31466  313856       0  313856  310033  3823.1    0.00  1059.5 16963.0    0.00 16963.0 16870.3   92.67
   16 310    13       0   31526  313855       0  313855  310032  3822.4    0.00  1061.8 16962.9    0.00 16962.9 16870.3   92.67
   16 311    14       0   31569  313853       0  313853  310032  3821.6    0.00  1063.5 16962.9    0.00 16962.9 16870.2   92.66
   16 312    15       0   31570  313851       0  313851  310031  3820.6    0.00  1063.5 16962.8    0.00 16962.8 16870.1   92.66
   16 313    16       0   31571  313850       0  313850  310030  3820.1    0.00  1063.6 16962.7    0.00 16962.7 16870.1   92.66
   16 314    17       0   31586  313849       0  313849  310030  3819.6    0.00  1064.1 16962.7    0.00 16962.7 16870.0   92.66
   16 315    18       0   31616  313848       0  313848  310029  3819.2    0.00  1065.3 16962.6    0.00 16962.6 16870.0   92.66
   16 316    19       0   31638  313848       0  313848  310029  3818.9    0.00  1066.1 16962.6    0.00 16962.6 16869.9   92.66
   16 317    20       0   31638  313847       0  313847  310028  3818.6    0.00  1066.1 16962.5    0.00 16962.5 16869.9   92.66
   16 318    21       0   31638  313846       0  313846  310028  3818.3    0.00  1066.1 16962.5    0.00 16962.5 16869.9   92.66
   16 319    22       0   31638  313846       0  313846  310028  3818.1    0.00  1066.1 16962.5    0.00 16962.5 16869.8   92.65
   16 320    23       0   31657  313845       0  313845  310027  3818.0    0.00  1066.9 16962.5    0.00 16962.5 16869.8   92.65
   16 321    24       0   31684  313845       0  313845  310027  3817.9    0.00  1067.9 16962.4    0.00 16962.4 16869.8   92.65
   16 322    25       0   31685  313845       0  313845  310027  3817.8    0.00  1067.9 16962.4    0.00 16962.4 16869.8   92.65
   16 323    26       0   31704  313844       0  313844  310027  3817.4    0.00  1068.7 16962.4    0.00 16962.4 16869.7   92.65
   16 324    27       0   31722  313842       0  313842  310026  3816.5    0.00  1069.3 16962.3    0.00 16962.3 16869.7   92.65
   16 325    28       0   31722  313838       0  313838  310025  3813.1    0.00  1069.3 16962.2    0.00 16962.2 16869.6   92.65
   16 326    29       0   31722  313832       0  313832  310024  3807.8    0.00  1069.4 16962.1    0.00 16962.1 16869.5   92.65
   16 327    30       0   31723  313825       0  313825  310023  3802.1    0.00  1069.4 16962.0    0.00 16962.0 16869.4   92.65
   16 328    31       0   31723  313818       0  313818  310022  3796.2    0.00  1069.4 16961.9    0.00 16961.9 16869.3   92.65
   16 329    32       0   31724  313813       0  313813  310021  3792.0    0.00  1069.4 16961.8    0.00 16961.8 16869.2   92.65
   16 330    33       0   31724  313807       0  313807  310021  3786.0    0.00  1069.4 16961.7    0.00 16961.7 16869.1   92.64
   16 331    34       0   31725  313798       0  313798  310020  3778.3    0.00  1069.4 16961.6    0.00 16961.6 16869.0   92.64
   16 332    35       0   31726  313791       0  313791  310019  3772.1    0.00  1069.5 16961.5    0.00 16961.5 16868.9   92.64
   16 333    36       0   31726  313788       0  313788  310018  3769.8    0.00  1069.5 16961.4    0.00 16961.4 16868.8   92.63
   16 334    37       0   31726  313787       0  313787  310017  3769.3    0.00  1069.5 16961.4    0.00 16961.4 16868.7   92.63
   16 335    38       0   31726  313786       0  313786  310017  3769.1    0.00  1069.5 16961.3    0.00 16961.3 16868.7   92.63
   16 336    39       0   31726  313786       0  313786  310017  3769.1    0.00  1069.5 16961.3    0.00 16961.3 16868.7   92.63
   16 337    40       0   31729  313786       0  313786  310017  3769.1    0.00  1069.6 16961.3    0.00 16961.3 16868.7   92.63
   16 338    41       0   31729  313786       0  313786  310017  3769.1    0.00  1069.6 16961.3    0.00 16961.3 16868.7   92.63
   16 339    42       0   31729  313786       0  313786  310017  3769.1    0.00  1069.6 16961.3    0.00 16961.3 16868.7   92.63
   16 340    43       0   31729  313786       0  313786  310017  3769.1    0.00  1069.6 16961.3    0.00 16961.3 16868.7   92.63
   16 341    44       0   31729  313786       0  313786  310017  3769.1    0.00  1069.6 16961.3    0.00 16961.3 16868.7   92.63
   16 342    45       0   31729  313786       0  313786  310017  3769.1    0.00  1069.6 16961.3    0.00 16961.3 16868.7   92.63
   16 343    46       0   31729  313786       0  313786  310017  3769.1    0.00  1069.6 16961.3    0.00 16961.3 16868.7   92.63
   16 344    47       0   31729  313786       0  313786  310017  3769.1    0.00  1069.6 16961.3    0.00 16961.3 16868.7   92.63
   16 345    48       0   31729  313786       0  313786  310017  3769.1    0.00  1069.6 16961.3    0.00 16961.3 16868.7   92.63
   16 346    49       0   31732  313786       0  313786  310017  3769.1    0.00  1069.7 16961.3    0.00 16961.3 16868.7   92.63
   16 347    50       0   31733  313786       0  313786  310017  3769.0    0.00  1069.7 16961.3    0.00 16961.3 16868.7   92.63
   16 348    51       0   31733  313786       0  313786  310017  3769.0    0.00  1069.7 16961.3    0.00 16961.3 16868.7   92.63
   16 349    52       0   31734  313786       0  313786  310017  3769.0    0.00  1069.7 16961.3    0.00 16961.3 16868.7   92.63
   16 350    53       0   31734  313785       0  313785  310017  3768.9    0.00  1069.7 16961.3    0.00 16961.3 16868.6   92.63
   16 351    54       0   31734  313785       0  313785  310016  3768.8    0.00  1069.7 16961.2    0.00 16961.2 16868.6   92.63
   16 352    55       0   31734  313785       0  313785  310016  3768.7    0.00  1069.7 16961.2    0.00 16961.2 16868.6   92.63
   16 353    56       0   31734  313785       0  313785  310016  3768.7    0.00  1069.8 16961.2    0.00 16961.2 16868.6   92.63
   16 354    57       0   31734  313785       0  313785  310016  3768.7    0.00  1069.8 16961.2    0.00 16961.2 16868.6   92.62
   16 355    58       0   31734  313785       0  313785  310016  3768.6    0.00  1069.8 16961.2    0.00 16961.2 16868.6   92.62
   16 356    59       0   31734  313785       0  313785  310016  3768.6    0.00  1069.8 16961.2    0.00 16961.2 16868.6   92.62
   16 357    60       0   31735  313785       0  313785  310016  3768.6    0.00  1069.8 16961.2    0.00 16961.2 16868.6   92.62
   16 358    61       0   31736  313785       0  313785  310016  3768.6    0.00  1069.8 16961.2    0.00 16961.2 16868.6   92.62
   16 359    62       0   31738  313785       0  313785  310016  3768.6    0.00  1069.9 16961.2    0.00 16961.2 16868.6   92.62
   16 360    63       0   31738  313785       0  313785  310016  3768.6    0.00  1069.9 16961.2    0.00 16961.2 16868.6   92.62
   16 361    64       0   31740  313785       0  313785  310016  3768.6    0.00  1070.0 16961.2    0.00 16961.2 16868.6   92.62
   16 362    65       0   31740  313784       0  313784  310016  3768.5    0.00  1070.0 16961.2    0.00 16961.2 16868.6   92.62
   16 363    66       0   31740  313784       0  313784  310016  3768.3    0.00  1070.0 16961.1    0.00 16961.1 16868.5   92.62
   16 364    67       0   31740  313783       0  313783  310015  3768.0    0.00  1070.0 16961.1    0.00 16961.1 16868.5   92.62
   16 365    68       0   31740  313783       0  313783  310015  3767.8    0.00  1070.0 16961.1    0.00 16961.1 16868.5   92.62
   16 366    69       0   31740  313783       0  313783  310015  3767.8    0.00  1070.0 16961.1    0.00 16961.1 16868.4   92.62
   17 001    70       0   31740  313783       0  313783  310015  3767.8    0.00  1070.0 16961.1    0.00 16961.1 16868.4   92.62
   17 002    71       0   31742  313783       0  313783  310015  3767.8    0.00  1070.1 16961.1    0.00 16961.1 16868.4   92.62
   17 003    72       0   31742  313783       0  313783  310015  3767.8    0.00  1070.1 16961.1    0.00 16961.1 16868.4   92.62
   17 004    73       0   31744  313783       0  313783  310015  3767.8    0.00  1070.1 16961.1    0.00 16961.1 16868.4   92.62
   17 005    74       0   31744  313783       0  313783  310015  3767.8    0.00  1070.1 16961.1    0.00 16961.1 16868.4   92.62
   17 006    75       0   31744  313783       0  313783  310015  3767.8    0.00  1070.1 16961.1    0.00 16961.1 16868.4   92.62
   17 007    76       0   31750  313783       0  313783  310015  3767.8    0.00  1070.4 16961.1    0.00 16961.1 16868.4   92.62
   17 008    77       0   31751  313783       0  313783  310015  3767.8    0.00  1070.4 16961.1    0.00 16961.1 16868.4   92.62
   17 009    78       0   31751  313783       0  313783  310015  3767.8    0.00  1070.4 16961.1    0.00 16961.1 16868.4   92.62
   17 010    79       0   31751  313783       0  313783  310015  3767.8    0.00  1070.4 16961.1    0.00 16961.1 16868.4   92.62
   17 011    80       0   31753  313783       0  313783  310015  3767.8    0.00  1070.5 16961.1    0.00 16961.1 16868.4   92.62
   17 012    81       0   31771  313783       0  313783  310015  3767.8    0.00  1071.2 16961.1    0.00 16961.1 16868.4   92.62
   17 013    82       0   31771  313783       0  313783  310015  3767.8    0.00  1071.2 16961.1    0.00 16961.1 16868.4   92.62
   17 014    83       0   31771  313783       0  313783  310015  3767.8    0.00  1071.2 16961.1    0.00 16961.1 16868.4   92.62
   17 015    84       0   31771  313783       0  313783  310015  3767.8    0.00  1071.2 16961.1    0.00 16961.1 16868.4   92.62
   17 016    85       0   31772  313783       0  313783  310015  3767.8    0.00  1071.2 16961.1    0.00 16961.1 16868.4   92.62
   17 017    86       0   31772  313783       0  313783  310015  3767.8    0.00  1071.2 16961.1    0.00 16961.1 16868.4   92.62
   17 018    87       0   31772  313783       0  313783  310015  3767.8    0.00  1071.2 16961.1    0.00 16961.1 16868.4   92.62
   17 019    88       0   31772  313783       0  313783  310015  3767.8    0.00  1071.2 16961.1    0.00 16961.1 16868.4   92.62
   17 020    89       0   31772  313783       0  313783  310015  3767.8    0.00  1071.2 16961.1    0.00 16961.1 16868.4   92.62
   17 021    90       0   31772  313783       0  313783  310015  3767.8    0.00  1071.2 16961.1    0.00 16961.1 16868.4   92.62
   17 022    91       0   31772  313783       0  313783  310015  3767.8    0.00  1071.2 16961.1    0.00 16961.1 16868.4   92.62
   17 023    92       0   31772  313783       0  313783  310015  3767.8    0.00  1071.2 16961.1    0.00 16961.1 16868.4   92.62
   17 024    93       0   31772  313783       0  313783  310015  3767.8    0.00  1071.2 16961.1    0.00 16961.1 16868.4   92.62
   17 025    94       0   31772  313783       0  313783  310015  3767.8    0.00  1071.2 16961.1    0.00 16961.1 16868.4   92.62
   17 026    95       0   31772  313783       0  313783  310015  3767.8    0.00  1071.2 16961.1    0.00 16961.1 16868.4   92.62
   17 027    96       0   31772  313783       0  313783  310015  3767.8    0.00  1071.2 16961.1    0.00 16961.1 16868.4   92.62
   17 028    97       0   31772  313783       0  313783  310015  3767.8    0.00  1071.2 16961.1    0.00 16961.1 16868.4   92.62
   17 029    98       0   31772  313783       0  313783  310015  3767.8    0.00  1071.2 16961.1    0.00 16961.1 16868.4   92.62
   17 030    99       0   31777  313783       0  313783  310015  3767.8    0.00  1071.4 16961.1    0.00 16961.1 16868.4   92.62
   17 031   100       0   31784  313783       0  313783  310015  3767.8    0.00  1071.7 16961.1    0.00 16961.1 16868.4   92.62
   17 032   101       0   31784  313783       0  313783  310015  3767.8    0.00  1071.7 16961.1    0.00 16961.1 16868.4   92.62
   17 033   102       0   31784  313783       0  313783  310015  3767.8    0.00  1071.7 16961.1    0.00 16961.1 16868.4   92.62
   17 034   103       0   31784  313783       0  313783  310015  3767.8    0.00  1071.7 16961.1    0.00 16961.1 16868.4   92.62
   17 035   104       0   31785  313783       0  313783  310015  3767.8    0.00  1071.7 16961.1    0.00 16961.1 16868.4   92.62
   17 036   105       0   31785  313782       0  313782  310015  3767.8    0.00  1071.7 16961.1    0.00 16961.1 16868.4   92.62
   17 037   106       0   31785  313782       0  313782  310015  3767.8    0.00  1071.7 16961.1    0.00 16961.1 16868.4   92.62
   17 038   107       0   31785  313782       0  313782  310015  3767.8    0.00  1071.7 16961.1    0.00 16961.1 16868.4   92.62
   17 039   108       0   31785  313782       0  313782  310015  3767.7    0.00  1071.7 16961.1    0.00 16961.1 16868.4   92.62
   17 040   109       0   31785  313782       0  313782  310015  3767.7    0.00  1071.7 16961.1    0.00 16961.1 16868.4   92.62
   17 041   110       0   31785  313782       0  313782  310015  3767.7    0.00  1071.7 16961.1    0.00 16961.1 16868.4   92.62
   17 042   111       0   31785  313782       0  313782  310015  3767.7    0.00  1071.7 16961.1    0.00 16961.1 16868.4   92.62
   17 043   112       0   31785  313782       0  313782  310015  3767.7    0.00  1071.7 16961.1    0.00 16961.1 16868.4   92.62
   17 044   113       0   31785  313782       0  313782  310015  3767.7    0.00  1071.7 16961.1    0.00 16961.1 16868.4   92.62
   17 045   114       0   31785  313782       0  313782  310015  3767.7    0.00  1071.7 16961.1    0.00 16961.1 16868.4   92.62
   17 046   115       0   31785  313782       0  313782  310015  3767.7    0.00  1071.7 16961.1    0.00 16961.1 16868.4   92.62
   17 047   116       0   31788  313782       0  313782  310015  3767.7    0.00  1071.8 16961.1    0.00 16961.1 16868.4   92.62
   17 048   117       0   31793  313782       0  313782  310015  3767.7    0.00  1072.0 16961.1    0.00 16961.1 16868.4   92.62
   17 049   118       0   31793  313782       0  313782  310015  3767.7    0.00  1072.0 16961.1    0.00 16961.1 16868.4   92.62
   17 050   119       0   31794  313782       0  313782  310015  3767.7    0.00  1072.0 16961.1    0.00 16961.1 16868.4   92.62
   17 051   120       0   31796  313782       0  313782  310015  3767.7    0.00  1072.1 16961.1    0.00 16961.1 16868.4   92.62
   17 052   121       0   31801  313782       0  313782  310015  3767.7    0.00  1072.3 16961.1    0.00 16961.1 16868.4   92.62
   17 053   122       0   31801  313782       0  313782  310015  3767.7    0.00  1072.3 16961.1    0.00 16961.1 16868.4   92.62
   17 054   123       0   31801  313782       0  313782  310014  3767.5    0.00  1072.3 16961.0    0.00 16961.0 16868.4   92.62
   17 055   124       0   31802  313771       0  313771  310015  3756.2    0.00  1072.3 16961.0    0.00 16961.0 16868.4   92.62
   17 056   125       0   31803  313757       0  313757  310016  3741.3    0.00  1072.4 16961.0    0.00 16961.0 16868.3   92.63
   17 057   126       0   31804  313748       0  313748  310017  3731.6    0.00  1072.4 16960.9    0.00 16960.9 16868.3   92.63
   17 058   127       0   31805  313743       0  313743  310017  3726.1    0.00  1072.4 16960.9    0.00 16960.9 16868.3   92.63
   17 059   128       0   31859  313742       0  313742  310016  3725.6    0.00  1074.5 16960.9    0.00 16960.9 16868.3   92.63
   17 060   129       0   31859  313742       0  313742  310016  3725.6    0.00  1074.5 16960.9    0.00 16960.9 16868.3   92.63
   17 061   130       0   31859  313742       0  313742  310016  3725.6    0.00  1074.5 16960.9    0.00 16960.9 16868.3   92.63
   17 062   131       0   31859  313742       0  313742  310016  3725.6    0.00  1074.5 16960.9    0.00 16960.9 16868.2   92.63
   17 063   132       0   31859  313742       0  313742  310016  3725.6    0.00  1074.5 16960.9    0.00 16960.9 16868.2   92.63
   17 064   133       0   31859  313742       0  313742  310016  3725.5    0.00  1074.5 16960.9    0.00 16960.9 16868.2   92.63
   17 065   134       0   31859  313739       0  313739  310016  3722.9    0.00  1074.5 16960.8    0.00 16960.8 16868.2   92.63
   17 066   135       0   31860  313735       0  313735  310016  3718.9    0.00  1074.5 16960.8    0.00 16960.8 16868.2   92.63
   17 067   136       0   31860  313732       0  313732  310016  3716.0    0.00  1074.5 16960.8    0.00 16960.8 16868.2   92.63
   17 068   137       0   31860  313729       0  313729  310017  3712.4    0.00  1074.5 16960.8    0.00 16960.8 16868.2   92.63
   17 069   138       0   31860  313727       0  313727  310017  3710.6    0.00  1074.5 16960.8    0.00 16960.8 16868.1   92.63
   17 070   139       0   31860  313727       0  313727  310016  3710.5    0.00  1074.5 16960.8    0.00 16960.8 16868.1   92.63
   17 071   140       0   31860  313727       0  313727  310016  3710.5    0.00  1074.5 16960.8    0.00 16960.8 16868.1   92.63
   17 072   141       0   31860  313727       0  313727  310016  3710.5    0.00  1074.5 16960.7    0.00 16960.7 16868.1   92.63
   17 073   142       0   31860  313727       0  313727  310016  3710.4    0.00  1074.5 16960.7    0.00 16960.7 16868.1   92.62
   17 074   143       0   31860  313727       0  313727  310016  3710.4    0.00  1074.5 16960.7    0.00 16960.7 16868.1   92.62
   17 075   144       0   31860  313727       0  313727  310016  3710.4    0.00  1074.5 16960.7    0.00 16960.7 16868.1   92.62
   17 076   145       0   31860  313726       0  313726  310016  3709.9    0.00  1074.5 16960.7    0.00 16960.7 16868.1   92.62
   17 077   146       0   31861  313722       0  313722  310016  3705.8    0.00  1074.5 16960.7    0.00 16960.7 16868.1   92.62
   17 078   147       0   31861  313714       0  313714  310017  3697.7    0.00  1074.5 16960.7    0.00 16960.7 16868.0   92.62
   17 079   148       0   31862  313701       0  313701  310017  3684.4    0.00  1074.6 16960.6    0.00 16960.6 16868.0   92.62
   17 080   149       0   31864  313686       0  313686  310018  3668.5    0.00  1074.6 16960.5    0.00 16960.5 16867.9   92.61
   17 081   150       0   31865  313668       0  313668  310018  3649.6    0.00  1074.6 16960.5    0.00 16960.5 16867.9   92.60
   17 082   151       0   31867  313651       0  313651  310019  3632.3    0.00  1074.7 16960.4    0.00 16960.4 16867.8   92.58
   17 083   152       0   31868  313635       0  313635  310020  3615.2    0.00  1074.7 16960.3    0.00 16960.3 16867.8   92.56
   17 084   153       0   31869  313622       0  313622  310020  3602.2    0.00  1074.7 16960.3    0.00 16960.3 16867.7   92.54
   17 085   154       0   31870  313612       0  313612  310020  3591.8    0.00  1074.7 16960.2    0.00 16960.2 16867.7   92.53
   17 086   155       0   31871  313606       0  313606  310020  3585.2    0.00  1074.8 16960.2    0.00 16960.2 16867.6   92.51
   17 087   156       0   31871  313599       0  313599  310020  3578.1    0.00  1074.8 16960.1    0.00 16960.1 16867.6   92.50
   17 088   157       0   31872  313592       0  313592  310020  3572.1    0.00  1074.8 16960.1    0.00 16960.1 16867.6   92.49
   17 089   158       0   31872  313584       0  313584  310020  3564.5    0.00  1074.8 16960.0    0.00 16960.0 16867.5   92.46
   17 090   159       0   31873  313576       0  313576  310019  3556.7    0.00  1074.8 16959.9    0.00 16959.9 16867.4   92.44
   17 091   160       0   31874  313565       0  313565  310018  3546.7    0.00  1074.8 16959.7    0.00 16959.7 16867.3   92.41
   17 092   161       0   31875  313552       0  313552  310016  3536.2    0.00  1074.9 16959.5    0.00 16959.5 16867.2   92.37
   17 093   162       0   31876  313539       0  313539  310014  3525.1    0.00  1074.9 16959.3    0.00 16959.3 16867.0   92.32
   17 094   163       0   31877  313525       0  313525  310012  3512.5    0.00  1074.9 16959.1    0.00 16959.1 16866.8   92.28
   17 095   164       0   31877  313512       0  313512  310011  3501.0    0.00  1074.9 16958.9    0.00 16958.9 16866.7   92.24
   17 096   165       0   31878  313501       0  313501  310009  3491.3    0.00  1074.9 16958.8    0.00 16958.8 16866.6   92.20
   17 097   166       0   31879  313492       0  313492  310008  3483.9    0.00  1074.9 16958.6    0.00 16958.6 16866.5   92.17
   17 098   167       0   31879  313486       0  313486  310008  3478.2    0.00  1075.0 16958.5    0.00 16958.5 16866.4   92.15
   17 099   168       0   31879  313480       0  313480  310007  3473.3    0.00  1075.0 16958.5    0.00 16958.5 16866.3   92.13
   17 100   169       0   31880  313474       0  313474  310006  3467.9    0.00  1075.0 16958.3    0.00 16958.3 16866.2   92.10
   17 101   170       0   31880  313466       0  313466  310004  3461.8    0.00  1075.0 16958.2    0.00 16958.2 16866.1   92.07
   17 102   171       0   31881  313458       0  313458  310002  3455.8    0.00  1075.0 16958.0    0.00 16958.0 16866.0   92.03
   17 103   172       0   31881  313450       0  313450  310000  3450.0    0.00  1075.0 16957.8    0.00 16957.8 16865.8   92.00
   17 104   173       0   31881  313443       0  313443  309998  3444.5    0.00  1075.0 16957.7    0.00 16957.7 16865.7   91.96
   17 105   174       0   31882  313437       0  313437  309997  3440.0    0.00  1075.0 16957.5    0.00 16957.5 16865.6   91.94
   17 106   175       0   31882  313431       0  313431  309996  3435.6    0.00  1075.0 16957.4    0.00 16957.4 16865.5   91.91
   17 107   176       0   31882  313425       0  313425  309995  3429.9    0.00  1075.0 16957.3    0.00 16957.3 16865.4   91.89
   17 108   177       0   31883  313418       0  313418  309994  3424.0    0.00  1075.0 16957.2    0.00 16957.2 16865.4   91.86
   17 109   178       0   31883  313413       0  313413  309994  3419.4    0.00  1075.1 16957.2    0.00 16957.2 16865.3   91.84
   17 110   179       0   31883  313411       0  313411  309994  3417.3    0.00  1075.1 16957.2    0.00 16957.2 16865.3   91.83
   17 111   180       0   31883  313411       0  313411  309994  3417.3    0.00  1075.1 16957.2    0.00 16957.2 16865.3   91.83
   17 112   181       0   31883  313411       0  313411  309994  3417.3    0.00  1075.1 16957.2    0.00 16957.2 16865.3   91.83
   17 113   182       0   31883  313411       0  313411  309994  3417.3    0.00  1075.1 16957.2    0.00 16957.2 16865.3   91.83
   17 114   183       0   31883  313411       0  313411  309994  3417.3    0.00  1075.1 16957.2    0.00 16957.2 16865.3   91.83
   17 115   184       0   31883  313411       0  313411  309994  3417.3    0.00  1075.1 16957.2    0.00 16957.2 16865.3   91.83
   17 116   185       0   31883  313411       0  313411  309994  3417.0    0.00  1075.1 16957.1    0.00 16957.1 16865.3   91.83
   17 117   186       0   31883  313410       0  313410  309993  3416.7    0.00  1075.1 16957.1    0.00 16957.1 16865.3   91.83
   17 118   187       0   31883  313410       0  313410  309993  3416.7    0.00  1075.1 16957.1    0.00 16957.1 16865.3   91.83
   17 119   188       0   31883  313410       0  313410  309993  3416.7    0.00  1075.1 16957.1    0.00 16957.1 16865.3   91.83
   17 120   189       0   31883  313410       0  313410  309993  3416.7    0.00  1075.1 16957.1    0.00 16957.1 16865.3   91.83
   17 121   190       0   31883  313410       0  313410  309993  3416.7    0.00  1075.1 16957.1    0.00 16957.1 16865.3   91.83
   17 122   191       0   31883  313410       0  313410  309993  3416.5    0.00  1075.1 16957.1    0.00 16957.1 16865.3   91.83
   17 123   192       0   31883  313408       0  313408  309992  3415.6    0.00  1075.0 16957.0    0.00 16957.0 16865.2   91.82
   17 124   193       0   31883  313404       0  313404  309990  3413.8    0.00  1075.0 16956.9    0.00 16956.9 16865.1   91.80
   17 125   194       0   31883  313399       0  313399  309988  3411.4    0.00  1075.0 16956.8    0.00 16956.8 16865.0   91.78
   17 126   195       0   31882  313393       0  313393  309985  3408.4    0.00  1075.0 16956.6    0.00 16956.6 16864.8   91.75
   17 127   196       0   31882  313386       0  313386  309982  3404.9    0.00  1075.0 16956.4    0.00 16956.4 16864.6   91.72
   17 128   197       0   31882  313379       0  313379  309978  3401.0    0.00  1075.0 16956.1    0.00 16956.1 16864.5   91.69
   17 129   198       0   31881  313372       0  313372  309975  3396.7    0.00  1075.0 16955.9    0.00 16955.9 16864.3   91.66
   17 130   199       0   31881  313364       0  313364  309972  3391.8    0.00  1075.0 16955.7    0.00 16955.7 16864.1   91.62
   17 131   200       0   31881  313357       0  313357  309970  3387.5    0.00  1075.0 16955.6    0.00 16955.6 16864.0   91.59
   17 132   201       0   31881  313351       0  313351  309967  3383.8    0.00  1075.0 16955.4    0.00 16955.4 16863.8   91.56
   17 133   202       0   31881  313344       0  313344  309964  3380.0    0.00  1075.0 16955.2    0.00 16955.2 16863.6   91.52
   17 134   203       0   31880  313335       0  313335  309960  3375.7    0.00  1074.9 16954.9    0.00 16954.9 16863.4   91.48
   17 135   204       0   31880  313325       0  313325  309955  3370.6    0.00  1074.9 16954.6    0.00 16954.6 16863.1   91.43
   17 136   205       0   31880  313313       0  313313  309949  3363.9    0.00  1074.9 16954.2    0.00 16954.2 16862.8   91.37
   17 137   206       0   31879  313300       0  313300  309944  3356.2    0.00  1074.9 16953.9    0.00 16953.9 16862.5   91.31
   17 138   207       0   31879  313288       0  313288  309939  3348.8    0.00  1074.9 16953.5    0.00 16953.5 16862.2   91.24
   17 139   208       0   31878  313275       0  313275  309933  3341.8    0.00  1074.9 16953.1    0.00 16953.1 16861.9   91.17
   17 140   209       0   31878  313262       0  313262  309927  3334.7    0.00  1074.8 16952.7    0.00 16952.7 16861.6   91.10
   17 141   210       0   31877  313249       0  313249  309921  3327.9    0.00  1074.8 16952.3    0.00 16952.3 16861.3   91.03
   17 142   211       0   31877  313237       0  313237  309916  3321.1    0.00  1074.8 16951.9    0.00 16951.9 16861.0   90.96
   17 143   212       0   31877  313225       0  313225  309911  3314.3    0.00  1074.8 16951.6    0.00 16951.6 16860.7   90.90
   17 144   213       0   31876  313213       0  313213  309906  3307.4    0.00  1074.8 16951.2    0.00 16951.2 16860.4   90.83
   17 145   214       0   31877  313194       0  313194  309903  3290.6    0.00  1074.8 16950.9    0.00 16950.9 16860.2   90.75
   17 146   215       0   31877  313174       0  313174  309900  3274.4    0.00  1074.8 16950.6    0.00 16950.6 16860.0   90.66
   17 147   216       0   31877  313156       0  313156  309896  3259.6    0.00  1074.8 16950.3    0.00 16950.3 16859.7   90.56
   17 148   217       0   31877  313139       0  313139  309892  3246.8    0.00  1074.8 16949.9    0.00 16949.9 16859.4   90.46
   17 149   218       0   31877  313123       0  313123  309887  3235.8    0.00  1074.8 16949.5    0.00 16949.5 16859.1   90.37
   17 150   219       0   31877  313107       0  313107  309881  3225.9    0.00  1074.8 16949.1    0.00 16949.1 16858.8   90.28
   17 151   220       0   31878  313072       0  313072  309879  3193.6    0.00  1074.8 16948.6    0.00 16948.6 16858.5   90.08
   17 152   221       0   31880  313031       0  313031  309876  3154.6    0.00  1074.8 16948.0    0.00 16948.0 16858.2   89.82
   17 153   222       0   31882  312994       0  312994  309873  3121.5    0.00  1074.9 16947.4    0.00 16947.4 16857.9   89.56
   17 154   223       0   31883  312963       0  312963  309868  3094.1    0.00  1074.9 16946.9    0.00 16946.9 16857.5   89.33
   17 155   224       0   31888  312901       0  312901  309871  3030.3    0.00  1075.0 16946.2    0.00 16946.2 16857.4   88.84
   17 156   225       0   31893  312848       0  312848  309873  2975.4    0.00  1075.2 16945.6    0.00 16945.6 16857.2   88.37
   17 157   226       0   31897  312798       0  312798  309875  2922.8    0.00  1075.3 16945.0    0.00 16945.0 16857.1   87.88
   17 158   227       0   31901  312751       0  312751  309877  2873.9    0.00  1075.4 16944.4    0.00 16944.4 16857.0   87.40
   17 159   228       0   31906  312710       0  312710  309879  2830.3    0.00  1075.5 16943.9    0.00 16943.9 16856.9   86.94
   17 160   229       0   31909  312678       0  312678  309881  2797.8    0.00  1075.6 16943.4    0.00 16943.4 16856.8   86.59
   17 161   230       0   31912  312648       0  312648  309881  2767.6    0.00  1075.7 16943.0    0.00 16943.0 16856.7   86.24
   17 162   231       0   31914  312623       0  312623  309880  2742.4    0.00  1075.8 16942.5    0.00 16942.5 16856.6   85.95
   17 163   232       0   31916  312600       0  312600  309878  2722.3    0.00  1075.8 16942.1    0.00 16942.1 16856.4   85.69
   17 164   233       0   31917  312577       0  312577  309875  2702.2    0.00  1075.9 16941.6    0.00 16941.6 16856.1   85.43
   17 165   234       0   31919  312552       0  312552  309873  2679.5    0.00  1075.9 16941.0    0.00 16941.0 16855.9   85.13
   17 166   235       0   31921  312527       0  312527  309870  2656.4    0.00  1076.0 16940.5    0.00 16940.5 16855.7   84.82
   17 167   236       0   31923  312496       0  312496  309869  2627.5    0.00  1076.0 16939.9    0.00 16939.9 16855.5   84.42
   17 168   237       0   31925  312473       0  312473  309866  2606.5    0.00  1076.1 16939.3    0.00 16939.3 16855.2   84.12
   17 169   238       0   31926  312454       0  312454  309863  2591.1    0.00  1076.1 16938.9    0.00 16938.9 16855.0   83.90
   17 170   239       0   31927  312440       0  312440  309860  2580.4    0.00  1076.2 16938.4    0.00 16938.4 16854.7   83.74
   17 171   240       0   31927  312428       0  312428  309856  2571.4    0.00  1076.2 16938.0    0.00 16938.0 16854.4   83.60
   17 172   241       0   31928  312416       0  312416  309852  2563.7    0.00  1076.2 16937.7    0.00 16937.7 16854.2   83.48
   17 173   242       0   31928  312406       0  312406  309848  2558.1    0.00  1076.2 16937.3    0.00 16937.3 16853.9   83.39
   17 174   243       0   31929  312385       0  312385  309846  2539.5    0.00  1076.2 16936.7    0.00 16936.7 16853.6   83.10
   17 175   244       0   31929  312370       0  312370  309841  2528.7    0.00  1076.2 16936.3    0.00 16936.3 16853.3   82.93
   17 176   245       0   31929  312360       0  312360  309837  2523.6    0.00  1076.2 16935.8    0.00 16935.8 16853.0   82.84
   17 177   246       0   31929  312350       0  312350  309832  2518.2    0.00  1076.2 16935.4    0.00 16935.4 16852.7   82.75
   17 178   247       0   31930  312333       0  312333  309829  2504.2    0.00  1076.2 16934.9    0.00 16934.9 16852.4   82.51
   17 179   248       0   31931  312305       0  312305  309829  2475.8    0.00  1076.3 16934.3    0.00 16934.3 16852.3   82.05
   17 180   249       0   31936  312255       0  312255  309833  2422.6    0.00  1076.4 16933.4    0.00 16933.4 16852.2   81.21
   17 181   250       0   31941  312206       0  312206  309837  2368.7    0.00  1076.6 16932.5    0.00 16932.5 16852.2   80.32
   17 182   251       0   31944  312164       0  312164  309839  2325.3    0.00  1076.7 16931.7    0.00 16931.7 16852.2   79.57
   17 183   252       0   31947  312132       0  312132  309840  2292.5    0.00  1076.8 16931.0    0.00 16931.0 16852.0   78.99
   17 184   253       0   31949  312107       0  312107  309840  2267.2    0.00  1076.9 16930.4    0.00 16930.4 16851.9   78.52
   17 185   254       0   31951  312086       0  312086  309839  2247.2    0.00  1077.0 16929.9    0.00 16929.9 16851.8   78.15
   17 186   255       0   31953  312070       0  312070  309837  2232.7    0.00  1077.0 16929.5    0.00 16929.5 16851.6   77.88
   17 187   256       0   31953  312058       0  312058  309835  2223.1    0.00  1077.0 16929.1    0.00 16929.1 16851.4   77.70
   17 188   257       0   31954  312049       0  312049  309831  2217.8    0.00  1077.0 16928.8    0.00 16928.8 16851.2   77.59
   17 189   258       0   31954  312042       0  312042  309827  2214.3    0.00  1077.0 16928.4    0.00 16928.4 16850.9   77.52
   17 190   259       0   31953  312036       0  312036  309823  2213.1    0.00  1077.0 16928.1    0.00 16928.1 16850.6   77.49
   17 191   260       0   31958  311987       0  311987  309827  2159.7    0.00  1077.2 16927.1    0.00 16927.1 16850.6   76.46
   17 192   261       0   31963  311935       0  311935  309830  2105.1    0.00  1077.4 16925.9    0.00 16925.9 16850.6   75.35
   17 193   262       0   31968  311886       0  311886  309834  2052.5    0.00  1077.6 16924.8    0.00 16924.8 16850.6   74.24
   17 194   263       0   31972  311840       0  311840  309836  2003.3    0.00  1077.7 16923.7    0.00 16923.7 16850.5   73.16
   17 195   264       0   31976  311802       0  311802  309838  1964.7    0.00  1077.8 16922.7    0.00 16922.7 16850.5   72.29
   17 196   265       0   31979  311767       0  311767  309839  1927.7    0.00  1078.0 16921.8    0.00 16921.8 16850.4   71.43
   17 197   266       0   31982  311735       0  311735  309840  1895.7    0.00  1078.1 16921.0    0.00 16921.0 16850.3   70.67
   17 198   267       0   31984  311710       0  311710  309840  1870.0    0.00  1078.2 16920.3    0.00 16920.3 16850.3   70.05
   17 199   268       0   31986  311688       0  311688  309839  1849.7    0.00  1078.2 16919.7    0.00 16919.7 16850.1   69.55
   17 200   269       0   31987  311671       0  311671  309837  1834.0    0.00  1078.3 16919.1    0.00 16919.1 16850.0   69.16
   17 201   270       0   31988  311654       0  311654  309834  1820.1    0.00  1078.3 16918.6    0.00 16918.6 16849.8   68.81
   17 202   271       0   31989  311640       0  311640  309831  1808.1    0.00  1078.4 16918.1    0.00 16918.1 16849.6   68.50
   17 203   272       0   31990  311626       0  311626  309828  1797.7    0.00  1078.4 16917.5    0.00 16917.5 16849.3   68.24
   17 204   273       0   31990  311613       0  311613  309824  1788.3    0.00  1078.4 16917.0    0.00 16917.0 16849.1   67.99
   17 205   274       0   31991  311601       0  311601  309821  1780.4    0.00  1078.4 16916.6    0.00 16916.6 16848.8   67.79
   17 206   275       0   31991  311587       0  311587  309818  1768.5    0.00  1078.4 16916.1    0.00 16916.1 16848.6   67.48
   17 207   276       0   31994  311557       0  311557  309818  1738.5    0.00  1078.5 16915.2    0.00 16915.2 16848.5   66.69
   17 208   277       0   31995  311533       0  311533  309817  1716.0    0.00  1078.6 16914.5    0.00 16914.5 16848.4   66.09
   17 209   278       0   31996  311511       0  311511  309816  1695.4    0.00  1078.7 16913.8    0.00 16913.8 16848.2   65.54
   17 210   279       0   31998  311489       0  311489  309814  1674.6    0.00  1078.7 16913.1    0.00 16913.1 16848.1   64.97
   17 211   280       0   32000  311466       0  311466  309812  1654.0    0.00  1078.8 16912.4    0.00 16912.4 16847.9   64.41
   17 212   281       0   32002  311441       0  311441  309810  1630.9    0.00  1078.9 16911.5    0.00 16911.5 16847.8   63.76
   17 213   282       0   32003  311414       0  311414  309807  1607.7    0.00  1078.9 16910.7    0.00 16910.7 16847.5   63.11
   17 214   283       0   32006  311376       0  311376  309805  1571.8    0.00  1079.1 16909.4    0.00 16909.4 16847.4   62.09
   17 215   284       0   32008  311343       0  311343  309801  1541.5    0.00  1079.2 16908.3    0.00 16908.3 16847.1   61.21
   17 216   285       0   32011  311303       0  311303  309798  1505.0    0.00  1079.3 16907.0    0.00 16907.0 16846.9   60.13
   17 217   286       0   32013  311268       0  311268  309794  1474.5    0.00  1079.4 16905.8    0.00 16905.8 16846.6   59.22
   17 218   287       0   32015  311237       0  311237  309789  1448.4    0.00  1079.4 16904.7    0.00 16904.7 16846.3   58.41
   17 219   288       0   32016  311212       0  311212  309784  1427.2    0.00  1079.5 16903.7    0.00 16903.7 16846.0   57.75

*DSSAT Cropping System Model Ver. 4.8.5.000 -release  MAR 01, 2026 09:34:40

*RUN   3        : 3                         WHAPS048 TUDU1701    3
 MODEL          : WHAPS048 - Wheat
 EXPERIMENT     : TUDU1701 WH
 DATA PATH      :
 TREATMENT  3   : 3                         WHAPS048
  
@YEAR DOY   DAS    OMAC    SCDD    SOCD    SC0D    SCTD   SOMCT    LCTD    ONAC    SNDD    SOND    SN0D    SNTD   SOMNT    LNTD
   16 297     0       0   31829  314106       0  314106  310026  4080.0    0.00  1073.8 16963.5    0.00 16963.5 16871.7   91.80
   16 298     1       0   31427  314065       0  314065  310028  4036.4    0.00  1058.3 16963.6    0.00 16963.6 16871.6   92.02
   16 299     2       0   31442  314022       0  314022  310031  3990.7    0.00  1058.9 16963.7    0.00 16963.7 16871.4   92.22
   16 300     3       0   31446  313981       0  313981  310034  3946.9    0.00  1059.0 16963.7    0.00 16963.7 16871.3   92.38
   16 301     4       0   31450  313945       0  313945  310036  3908.7    0.00  1059.0 16963.7    0.00 16963.7 16871.2   92.50
   16 302     5       0   31452  313917       0  313917  310037  3879.8    0.00  1059.1 16963.6    0.00 16963.6 16871.1   92.58
   16 303     6       0   31456  313897       0  313897  310038  3859.2    0.00  1059.2 16963.6    0.00 16963.6 16870.9   92.62
   16 304     7       0   31457  313882       0  313882  310037  3844.7    0.00  1059.2 16963.5    0.00 16963.5 16870.8   92.65
   16 305     8       0   31458  313873       0  313873  310037  3835.8    0.00  1059.2 16963.4    0.00 16963.4 16870.7   92.66
   16 306     9       0   31459  313866       0  313866  310036  3830.1    0.00  1059.3 16963.3    0.00 16963.3 16870.6   92.67
   16 307    10       0   31465  313862       0  313862  310035  3827.1    0.00  1059.5 16963.2    0.00 16963.2 16870.5   92.67
   16 308    11       0   31465  313858       0  313858  310034  3824.0    0.00  1059.5 16963.1    0.00 16963.1 16870.4   92.67
   16 309    12       0   31466  313856       0  313856  310033  3823.1    0.00  1059.5 16963.0    0.00 16963.0 16870.3   92.67
   16 310    13       0   31526  313855       0  313855  310032  3822.4    0.00  1061.8 16962.9    0.00 16962.9 16870.3   92.67
   16 311    14       0   31569  313853       0  313853  310032  3821.6    0.00  1063.5 16962.9    0.00 16962.9 16870.2   92.66
   16 312    15       0   31570  313851       0  313851  310031  3820.6    0.00  1063.5 16962.8    0.00 16962.8 16870.1   92.66
   16 313    16       0   31571  313850       0  313850  310030  3820.1    0.00  1063.6 16962.7    0.00 16962.7 16870.1   92.66
   16 314    17       0   31586  313849       0  313849  310030  3819.6    0.00  1064.1 16962.7    0.00 16962.7 16870.0   92.66
   16 315    18       0   31616  313848       0  313848  310029  3819.2    0.00  1065.3 16962.6    0.00 16962.6 16870.0   92.66
   16 316    19       0   31638  313848       0  313848  310029  3818.9    0.00  1066.1 16962.6    0.00 16962.6 16869.9   92.66
   16 317    20       0   31638  313847       0  313847  310028  3818.6    0.00  1066.1 16962.5    0.00 16962.5 16869.9   92.66
   16 318    21       0   31638  313846       0  313846  310028  3818.3    0.00  1066.1 16962.5    0.00 16962.5 16869.9   92.66
   16 319    22       0   31638  313846       0  313846  310028  3818.1    0.00  1066.1 16962.5    0.00 16962.5 16869.8   92.65
   16 320    23       0   31657  313845       0  313845  310027  3818.0    0.00  1066.9 16962.5    0.00 16962.5 16869.8   92.65
   16 321    24       0   31684  313845       0  313845  310027  3817.9    0.00  1067.9 16962.4    0.00 16962.4 16869.8   92.65
   16 322    25       0   31685  313845       0  313845  310027  3817.8    0.00  1067.9 16962.4    0.00 16962.4 16869.8   92.65
   16 323    26       0   31704  313844       0  313844  310027  3817.4    0.00  1068.7 16962.4    0.00 16962.4 16869.7   92.65
   16 324    27       0   31722  313842       0  313842  310026  3816.5    0.00  1069.3 16962.3    0.00 16962.3 16869.7   92.65
   16 325    28       0   31722  313838       0  313838  310025  3813.1    0.00  1069.3 16962.2    0.00 16962.2 16869.6   92.65
   16 326    29       0   31722  313832       0  313832  310024  3807.8    0.00  1069.4 16962.1    0.00 16962.1 16869.5   92.65
   16 327    30       0   31723  313825       0  313825  310023  3802.1    0.00  1069.4 16962.0    0.00 16962.0 16869.4   92.65
   16 328    31       0   31723  313818       0  313818  310022  3796.2    0.00  1069.4 16961.9    0.00 16961.9 16869.3   92.65
[...]
   17 065   134       0   31855  313768       0  313768  310009  3759.2    0.00  1074.4 16960.6    0.00 16960.6 16868.0   92.59
   17 066   135       0   31855  313767       0  313767  310008  3758.3    0.00  1074.4 16960.6    0.00 16960.6 16868.0   92.59
   17 067   136       0   31855  313766       0  313766  310008  3757.6    0.00  1074.4 16960.6    0.00 16960.6 16868.0   92.59
   17 068   137       0   31855  313765       0  313765  310008  3756.8    0.00  1074.4 16960.5    0.00 16960.5 16867.9   92.58
   17 069   138       0   31855  313764       0  313764  310007  3756.2    0.00  1074.4 16960.5    0.00 16960.5 16867.9   92.58
   17 070   139       0   31855  313763       0  313763  310007  3756.2    0.00  1074.4 16960.5    0.00 16960.5 16867.9   92.58
   17 071   140       0   31855  313763       0  313763  310007  3756.2    0.00  1074.4 16960.5    0.00 16960.5 16867.9   92.58
   17 072   141       0   31855  313763       0  313763  310007  3756.1    0.00  1074.4 16960.5    0.00 16960.5 16867.9   92.58
   17 073   142       0   31855  313763       0  313763  310007  3756.1    0.00  1074.4 16960.5    0.00 16960.5 16867.9   92.58
   17 074   143       0   31855  313763       0  313763  310007  3756.1    0.00  1074.4 16960.5    0.00 16960.5 16867.9   92.58
   17 075   144       0   31855  313763       0  313763  310007  3756.1    0.00  1074.4 16960.5    0.00 16960.5 16867.9   92.58
   17 076   145       0   31855  313763       0  313763  310007  3755.8    0.00  1074.4 16960.5    0.00 16960.5 16867.9   92.58
   17 077   146       0   31855  313761       0  313761  310006  3755.0    0.00  1074.4 16960.4    0.00 16960.4 16867.8   92.58
   17 078   147       0   31855  313759       0  313759  310005  3753.6    0.00  1074.4 16960.3    0.00 16960.3 16867.8   92.57
   17 079   148       0   31855  313755       0  313755  310004  3751.4    0.00  1074.4 16960.2    0.00 16960.2 16867.7   92.56
   17 080   149       0   31854  313750       0  313750  310002  3748.4    0.00  1074.4 16960.1    0.00 16960.1 16867.5   92.55
   17 081   150       0   31854  313744       0  313744  309999  3744.6    0.00  1074.4 16960.0    0.00 16960.0 16867.4   92.54
   17 082   151       0   31854  313738       0  313738  309997  3740.7    0.00  1074.3 16959.8    0.00 16959.8 16867.3   92.53
   17 083   152       0   31854  313732       0  313732  309995  3736.6    0.00  1074.3 16959.7    0.00 16959.7 16867.2   92.52
   17 084   153       0   31854  313727       0  313727  309994  3732.8    0.00  1074.3 16959.6    0.00 16959.6 16867.1   92.51
   17 085   154       0   31854  313722       0  313722  309993  3729.2    0.00  1074.3 16959.5    0.00 16959.5 16867.0   92.51
   17 086   155       0   31854  313719       0  313719  309992  3726.1    0.00  1074.3 16959.5    0.00 16959.5 16866.9   92.50
   17 087   156       0   31854  313715       0  313715  309992  3723.2    0.00  1074.3 16959.4    0.00 16959.4 16866.9   92.50
   17 088   157       0   31854  313711       0  313711  309991  3720.4    0.00  1074.3 16959.3    0.00 16959.3 16866.8   92.49
   17 089   158       0   31854  313706       0  313706  309989  3717.1    0.00  1074.3 16959.2    0.00 16959.2 16866.7   92.48
   17 090   159       0   31854  313701       0  313701  309988  3713.6    0.00  1074.3 16959.1    0.00 16959.1 16866.6   92.47
   17 091   160       0   31854  313694       0  313694  309985  3709.2    0.00  1074.3 16958.9    0.00 16958.9 16866.5   92.45
   17 092   161       0   31854  313686       0  313686  309982  3704.0    0.00  1074.3 16958.7    0.00 16958.7 16866.3   92.43
   17 093   162       0   31854  313677       0  313677  309979  3698.3    0.00  1074.3 16958.5    0.00 16958.5 16866.1   92.40
   17 094   163       0   31854  313667       0  313667  309975  3692.1    0.00  1074.3 16958.3    0.00 16958.3 16865.9   92.37
   17 095   164       0   31854  313658       0  313658  309972  3685.7    0.00  1074.3 16958.0    0.00 16958.0 16865.7   92.35
   17 096   165       0   31854  313649       0  313649  309970  3679.6    0.00  1074.3 16957.9    0.00 16957.9 16865.5   92.33
   17 097   166       0   31854  313642       0  313642  309968  3674.1    0.00  1074.3 16957.7    0.00 16957.7 16865.4   92.31
   17 098   167       0   31854  313636       0  313636  309967  3669.2    0.00  1074.3 16957.6    0.00 16957.6 16865.3   92.30
   17 099   168       0   31854  313631       0  313631  309966  3664.6    0.00  1074.3 16957.5    0.00 16957.5 16865.3   92.28
   17 100   169       0   31855  313624       0  313624  309964  3659.9    0.00  1074.3 16957.4    0.00 16957.4 16865.2   92.27
   17 101   170       0   31855  313617       0  313617  309962  3654.8    0.00  1074.3 16957.3    0.00 16957.3 16865.0   92.24
   17 102   171       0   31855  313609       0  313609  309959  3649.5    0.00  1074.3 16957.1    0.00 16957.1 16864.9   92.22
   17 103   172       0   31855  313601       0  313601  309957  3644.2    0.00  1074.3 16956.9    0.00 16956.9 16864.7   92.19
   17 104   173       0   31855  313594       0  313594  309955  3639.1    0.00  1074.3 16956.7    0.00 16956.7 16864.6   92.17
   17 105   174       0   31855  313587       0  313587  309953  3634.4    0.00  1074.3 16956.6    0.00 16956.6 16864.4   92.14
   17 106   175       0   31855  313581       0  313581  309951  3629.5    0.00  1074.3 16956.4    0.00 16956.4 16864.3   92.13
   17 107   176       0   31855  313574       0  313574  309950  3624.7    0.00  1074.3 16956.3    0.00 16956.3 16864.2   92.11
   17 108   177       0   31855  313569       0  313569  309948  3620.4    0.00  1074.3 16956.2    0.00 16956.2 16864.1   92.09
   17 109   178       0   31856  313564       0  313564  309948  3616.6    0.00  1074.3 16956.2    0.00 16956.2 16864.1   92.08
   17 110   179       0   31856  313562       0  313562  309948  3614.1    0.00  1074.3 16956.2    0.00 16956.2 16864.1   92.08
   17 111   180       0   31856  313562       0  313562  309948  3614.1    0.00  1074.3 16956.2    0.00 16956.2 16864.1   92.08
   17 112   181       0   31856  313562       0  313562  309948  3614.1    0.00  1074.3 16956.2    0.00 16956.2 16864.1   92.08
   17 113   182       0   31856  313562       0  313562  309948  3614.1    0.00  1074.3 16956.2    0.00 16956.2 16864.1   92.08
   17 114   183       0   31856  313562       0  313562  309948  3614.1    0.00  1074.3 16956.2    0.00 16956.2 16864.1   92.08
   17 115   184       0   31856  313562       0  313562  309948  3614.1    0.00  1074.3 16956.2    0.00 16956.2 16864.1   92.08
   17 116   185       0   31856  313560       0  313560  309948  3612.2    0.00  1074.3 16956.1    0.00 16956.1 16864.1   92.07
   17 117   186       0   31856  313559       0  313559  309948  3610.8    0.00  1074.3 16956.1    0.00 16956.1 16864.1   92.07
   17 118   187       0   31856  313559       0  313559  309948  3610.8    0.00  1074.3 16956.1    0.00 16956.1 16864.1   92.07
   17 119   188       0   31856  313559       0  313559  309948  3610.8    0.00  1074.3 16956.1    0.00 16956.1 16864.1   92.07
   17 120   189       0   31856  313559       0  313559  309948  3610.8    0.00  1074.3 16956.1    0.00 16956.1 16864.1   92.07
   17 121   190       0   31856  313559       0  313559  309948  3610.8    0.00  1074.3 16956.1    0.00 16956.1 16864.1   92.07
   17 122   191       0   31856  313558       0  313558  309948  3610.3    0.00  1074.3 16956.1    0.00 16956.1 16864.1   92.07
   17 123   192       0   31856  313556       0  313556  309947  3609.2    0.00  1074.3 16956.1    0.00 16956.1 16864.0   92.06
   17 124   193       0   31856  313552       0  313552  309945  3607.2    0.00  1074.3 16955.9    0.00 16955.9 16863.9   92.04
   17 125   194       0   31856  313547       0  313547  309942  3604.5    0.00  1074.3 16955.8    0.00 16955.8 16863.8   92.02
   17 126   195       0   31855  313541       0  313541  309940  3600.9    0.00  1074.3 16955.6    0.00 16955.6 16863.6   92.00
   17 127   196       0   31855  313533       0  313533  309937  3596.6    0.00  1074.3 16955.4    0.00 16955.4 16863.4   91.97
   17 128   197       0   31855  313525       0  313525  309934  3591.6    0.00  1074.3 16955.2    0.00 16955.2 16863.3   91.93
   17 129   198       0   31855  313517       0  313517  309930  3586.4    0.00  1074.3 16955.0    0.00 16955.0 16863.1   91.90
   17 130   199       0   31855  313509       0  313509  309928  3580.9    0.00  1074.3 16954.8    0.00 16954.8 16862.9   91.87
   17 131   200       0   31855  313501       0  313501  309926  3575.4    0.00  1074.3 16954.6    0.00 16954.6 16862.8   91.84
   17 132   201       0   31855  313494       0  313494  309924  3570.0    0.00  1074.3 16954.5    0.00 16954.5 16862.7   91.82
   17 133   202       0   31855  313485       0  313485  309921  3564.2    0.00  1074.3 16954.3    0.00 16954.3 16862.5   91.78
   17 134   203       0   31855  313476       0  313476  309917  3558.0    0.00  1074.3 16954.0    0.00 16954.0 16862.3   91.74
   17 135   204       0   31855  313464       0  313464  309913  3551.3    0.00  1074.2 16953.7    0.00 16953.7 16862.0   91.69
   17 136   205       0   31854  313451       0  313451  309908  3543.6    0.00  1074.2 16953.4    0.00 16953.4 16861.7   91.64
   17 137   206       0   31854  313438       0  313438  309903  3534.9    0.00  1074.2 16953.0    0.00 16953.0 16861.4   91.58
   17 138   207       0   31854  313423       0  313423  309898  3525.6    0.00  1074.2 16952.7    0.00 16952.7 16861.2   91.52
   17 139   208       0   31854  313409       0  313409  309893  3515.8    0.00  1074.2 16952.3    0.00 16952.3 16860.9   91.45
   17 140   209       0   31854  313394       0  313394  309888  3505.6    0.00  1074.2 16951.9    0.00 16951.9 16860.6   91.38
   17 141   210       0   31854  313379       0  313379  309883  3495.4    0.00  1074.2 16951.6    0.00 16951.6 16860.3   91.32
   17 142   211       0   31855  313365       0  313365  309879  3485.7    0.00  1074.2 16951.2    0.00 16951.2 16860.0   91.25
   17 143   212       0   31855  313351       0  313351  309874  3476.4    0.00  1074.2 16950.9    0.00 16950.9 16859.7   91.18
   17 144   213       0   31855  313337       0  313337  309870  3467.1    0.00  1074.2 16950.6    0.00 16950.6 16859.5   91.12
   17 145   214       0   31855  313324       0  313324  309866  3458.0    0.00  1074.2 16950.3    0.00 16950.3 16859.2   91.06
   17 146   215       0   31855  313311       0  313311  309862  3448.7    0.00  1074.2 16949.9    0.00 16949.9 16859.0   90.99
   17 147   216       0   31856  313297       0  313297  309857  3439.1    0.00  1074.2 16949.6    0.00 16949.6 16858.7   90.92
   17 148   217       0   31856  313282       0  313282  309853  3429.2    0.00  1074.2 16949.2    0.00 16949.2 16858.4   90.85
   17 149   218       0   31856  313267       0  313267  309848  3419.2    0.00  1074.2 16948.9    0.00 16948.9 16858.1   90.77
   17 150   219       0   31857  313251       0  313251  309842  3408.6    0.00  1074.2 16948.4    0.00 16948.4 16857.8   90.68
   17 151   220       0   31857  313231       0  313231  309836  3395.2    0.00  1074.2 16948.0    0.00 16948.0 16857.4   90.59
   17 152   221       0   31857  313209       0  313209  309829  3380.7    0.00  1074.2 16947.4    0.00 16947.4 16856.9   90.48
   17 153   222       0   31858  313187       0  313187  309821  3365.2    0.00  1074.2 16946.9    0.00 16946.9 16856.5   90.37
   17 154   223       0   31858  313163       0  313163  309814  3348.8    0.00  1074.2 16946.3    0.00 16946.3 16856.1   90.26
   17 155   224       0   31859  313139       0  313139  309807  3331.5    0.00  1074.2 16945.7    0.00 16945.7 16855.6   90.14
   17 156   225       0   31860  313115       0  313115  309801  3313.8    0.00  1074.2 16945.2    0.00 16945.2 16855.2   90.02
   17 157   226       0   31860  313091       0  313091  309795  3295.5    0.00  1074.3 16944.8    0.00 16944.8 16854.9   89.90
   17 158   227       0   31862  313068       0  313068  309791  3277.0    0.00  1074.3 16944.3    0.00 16944.3 16854.6   89.78
   17 159   228       0   31863  313047       0  313047  309788  3258.9    0.00  1074.3 16944.0    0.00 16944.0 16854.3   89.66
   17 160   229       0   31864  313027       0  313027  309785  3241.8    0.00  1074.3 16943.7    0.00 16943.7 16854.1   89.55
   17 161   230       0   31866  313008       0  313008  309783  3225.0    0.00  1074.4 16943.3    0.00 16943.3 16853.9   89.44
   17 162   231       0   31867  312988       0  312988  309780  3208.7    0.00  1074.4 16943.0    0.00 16943.0 16853.7   89.32
   17 163   232       0   31868  312968       0  312968  309776  3192.1    0.00  1074.4 16942.6    0.00 16942.6 16853.4   89.20
   17 164   233       0   31869  312948       0  312948  309772  3176.4    0.00  1074.5 16942.2    0.00 16942.2 16853.1   89.06
   17 165   234       0   31870  312926       0  312926  309767  3159.6    0.00  1074.5 16941.7    0.00 16941.7 16852.8   88.92
   17 166   235       0   31872  312904       0  312904  309762  3141.6    0.00  1074.5 16941.2    0.00 16941.2 16852.4   88.75
   17 167   236       0   31873  312877       0  312877  309757  3119.2    0.00  1074.6 16940.7    0.00 16940.7 16852.1   88.57
   17 168   237       0   31876  312848       0  312848  309754  3094.3    0.00  1074.6 16940.2    0.00 16940.2 16851.8   88.35
   17 169   238       0   31878  312822       0  312822  309750  3071.7    0.00  1074.7 16939.6    0.00 16939.6 16851.5   88.14
   17 170   239       0   31880  312798       0  312798  309747  3051.3    0.00  1074.8 16939.2    0.00 16939.2 16851.2   87.93
   17 171   240       0   31882  312775       0  312775  309743  3032.0    0.00  1074.8 16938.7    0.00 16938.7 16850.9   87.73
   17 172   241       0   31884  312752       0  312752  309739  3013.3    0.00  1074.9 16938.2    0.00 16938.2 16850.6   87.53
   17 173   242       0   31885  312730       0  312730  309734  2995.9    0.00  1074.9 16937.6    0.00 16937.6 16850.3   87.33
   17 174   243       0   31887  312703       0  312703  309730  2973.6    0.00  1075.0 16937.0    0.00 16937.0 16849.9   87.11
   17 175   244       0   31889  312675       0  312675  309724  2950.5    0.00  1075.0 16936.4    0.00 16936.4 16849.5   86.87
   17 176   245       0   31890  312650       0  312650  309719  2931.4    0.00  1075.0 16935.8    0.00 16935.8 16849.1   86.65
   17 177   246       0   31892  312626       0  312626  309713  2913.1    0.00  1075.1 16935.2    0.00 16935.2 16848.8   86.44
   17 178   247       0   31893  312601       0  312601  309708  2893.3    0.00  1075.1 16934.6    0.00 16934.6 16848.4   86.24
   17 179   248       0   31895  312572       0  312572  309704  2868.6    0.00  1075.2 16934.0    0.00 16934.0 16848.0   85.97
   17 180   249       0   31900  312525       0  312525  309703  2821.5    0.00  1075.3 16933.2    0.00 16933.2 16847.8   85.40
   17 181   250       0   31905  312479       0  312479  309703  2775.6    0.00  1075.5 16932.4    0.00 16932.4 16847.6   84.82
   17 182   251       0   31910  312435       0  312435  309703  2732.6    0.00  1075.6 16931.6    0.00 16931.6 16847.4   84.24
   17 183   252       0   31913  312396       0  312396  309702  2694.8    0.00  1075.7 16930.9    0.00 16930.9 16847.2   83.71
   17 184   253       0   31917  312364       0  312364  309700  2664.4    0.00  1075.8 16930.2    0.00 16930.2 16847.0   83.26
   17 185   254       0   31919  312337       0  312337  309698  2639.3    0.00  1075.9 16929.6    0.00 16929.6 16846.7   82.84
   17 186   255       0   31921  312311       0  312311  309695  2616.0    0.00  1076.0 16929.0    0.00 16929.0 16846.5   82.45
   17 187   256       0   31924  312286       0  312286  309692  2593.7    0.00  1076.1 16928.3    0.00 16928.3 16846.2   82.06
   17 188   257       0   31926  312260       0  312260  309689  2571.1    0.00  1076.2 16927.6    0.00 16927.6 16846.0   81.66
   17 189   258       0   31928  312232       0  312232  309685  2546.9    0.00  1076.2 16926.9    0.00 16926.9 16845.7   81.25
   17 190   259       0   31930  312205       0  312205  309680  2524.9    0.00  1076.3 16926.2    0.00 16926.2 16845.3   80.83
   17 191   260       0   31934  312163       0  312163  309678  2484.6    0.00  1076.4 16925.2    0.00 16925.2 16845.1   80.11
   17 192   261       0   31937  312121       0  312121  309675  2446.5    0.00  1076.6 16924.2    0.00 16924.2 16844.7   79.41
   17 193   262       0   31941  312080       0  312080  309672  2408.1    0.00  1076.7 16923.1    0.00 16923.1 16844.5   78.69
   17 194   263       0   31944  312039       0  312039  309669  2369.9    0.00  1076.8 16922.1    0.00 16922.1 16844.2   77.96
   17 195   264       0   31948  312000       0  312000  309667  2333.3    0.00  1076.9 16921.2    0.00 16921.2 16843.9   77.26
   17 196   265       0   31951  311965       0  311965  309665  2299.7    0.00  1077.0 16920.3    0.00 16920.3 16843.7   76.61
   17 197   266       0   31954  311931       0  311931  309663  2268.0    0.00  1077.1 16919.5    0.00 16919.5 16843.5   75.99
   17 198   267       0   31956  311900       0  311900  309661  2239.1    0.00  1077.2 16918.8    0.00 16918.8 16843.3   75.41
   17 199   268       0   31958  311874       0  311874  309659  2215.2    0.00  1077.3 16918.0    0.00 16918.0 16843.1   74.89
   17 200   269       0   31960  311848       0  311848  309656  2192.5    0.00  1077.4 16917.2    0.00 16917.2 16842.9   74.37
   17 201   270       0   31962  311821       0  311821  309651  2169.7    0.00  1077.5 16916.4    0.00 16916.4 16842.6   73.81
   17 202   271       0   31964  311793       0  311793  309647  2146.2    0.00  1077.6 16915.5    0.00 16915.5 16842.3   73.24
   17 203   272       0   31966  311765       0  311765  309641  2123.6    0.00  1077.6 16914.6    0.00 16914.6 16841.9   72.67
   17 204   273       0   31968  311736       0  311736  309636  2099.9    0.00  1077.7 16913.6    0.00 16913.6 16841.6   72.08
   17 205   274       0   31970  311708       0  311708  309630  2077.6    0.00  1077.8 16912.7    0.00 16912.7 16841.2   71.53
   17 206   275       0   31971  311675       0  311675  309626  2048.6    0.00  1077.8 16911.9    0.00 16911.9 16840.9   70.97
   17 207   276       0   31973  311642       0  311642  309624  2018.0    0.00  1077.9 16911.0    0.00 16911.0 16840.7   70.37
   17 208   277       0   31975  311613       0  311613  309621  1992.7    0.00  1078.0 16910.3    0.00 16910.3 16840.4   69.87
   17 209   278       0   31976  311585       0  311585  309618  1966.6    0.00  1078.0 16909.6    0.00 16909.6 16840.2   69.38
   17 210   279       0   31978  311559       0  311559  309616  1943.3    0.00  1078.1 16908.9    0.00 16908.9 16840.0   68.88
   17 211   280       0   31979  311535       0  311535  309612  1922.8    0.00  1078.2 16908.1    0.00 16908.1 16839.7   68.36
   17 212   281       0   31981  311505       0  311505  309608  1896.7    0.00  1078.2 16907.2    0.00 16907.2 16839.4   67.74
   17 213   282       0   31983  311473       0  311473  309603  1870.6    0.00  1078.3 16906.2    0.00 16906.2 16839.1   67.07
   17 214   283       0   31986  311425       0  311425  309600  1825.1    0.00  1078.4 16904.9    0.00 16904.9 16838.8   66.12
   17 215   284       0   31989  311384       0  311384  309594  1790.1    0.00  1078.5 16903.6    0.00 16903.6 16838.4   65.25
   17 216   285       0   31991  311334       0  311334  309589  1745.1    0.00  1078.6 16902.2    0.00 16902.2 16838.0   64.22
   17 217   286       0   31994  311292       0  311292  309583  1709.4    0.00  1078.7 16900.9    0.00 16900.9 16837.6   63.31
   17 218   287       0   31996  311255       0  311255  309575  1679.8    0.00  1078.8 16899.6    0.00 16899.6 16837.1   62.50
   17 219   288       0   31997  311224       0  311224  309568  1656.3    0.00  1078.9 16898.5    0.00 16898.5 16836.7   61.82
