*SOIL WATER DAILY OUTPUT FILE

*DSSAT Cropping System Model Ver. 4.8.5.000 -release  MAR 01, 2026 09:34:40

*RUN   1        : 1                         WHAPS048 TUDU1701    1
 MODEL          : WHAPS048 - Wheat
 EXPERIMENT     : TUDU1701 WH
 DATA PATH      :
 TREATMENT  1   : 1                         WHAPS048
  
!                                                                                                                                   Soil water content (mm3/mm3) by soil depth (cm):
!                                                                                                                                   0-5    5-15   15-20   20-30   30-40   40-50   50-60   60-70   70-90  90-110 110-130 130-150 150-170 170-190 190-210
@YEAR DOY   DAS    SWTD    SWXD    ROFC    DRNC    PREC    IR#C    IRRC   LATFC    DTWT    MWTD    TDFD    TDFC    ROFD    ROSD    SW1D    SW2D    SW3D    SW4D    SW5D    SW6D    SW7D    SW8D    SW9D   SW10D   SW11D   SW12D   SW13D   SW14D   SW15D
   16 297     0     532     241       0       0       0       0       0       0     210    0.00     0.0     0.0    0.00    0.00   0.223   0.234   0.239   0.249   0.254   0.258   0.263   0.263   0.262   0.260   0.257   0.255   0.253   0.250   0.249
   16 298     1     534     242       0       0       3       0       0       0     210    0.00     0.0     0.0    0.00    0.00   0.245   0.243   0.239   0.249   0.254   0.258   0.263   0.263   0.262   0.260   0.257   0.255   0.253   0.250   0.249
   16 299     2     535     244       0       0       5       0       0       0     210    0.00     0.0     0.0    0.00    0.00   0.247   0.248   0.248   0.249   0.254   0.258   0.263   0.263   0.262   0.260   0.257   0.255   0.253   0.250   0.249
   16 300     3     534     243       0       0       5       0       0       0     210    0.00     0.0     0.0    0.00    0.00   0.223   0.248   0.251   0.251   0.254   0.258   0.263   0.263   0.262   0.260   0.257   0.255   0.253   0.250   0.249
   16 301     4     532     241       0       0       5       0       0       0     210    0.00     0.0     0.0    0.00    0.00   0.193   0.248   0.249   0.251   0.254   0.258   0.263   0.263   0.262   0.260   0.257   0.255   0.253   0.250   0.249
   16 302     5     531     240       0       0       5       0       0       0     210    0.00     0.0     0.0    0.00    0.00   0.161   0.248   0.248   0.252   0.254   0.258   0.263   0.263   0.262   0.260   0.257   0.255   0.253   0.250   0.249
   16 303     6     530     239       0       0       5       0       0       0     210    0.00     0.0     0.0    0.00    0.00   0.147   0.247   0.248   0.253   0.255   0.258   0.263   0.263   0.262   0.260   0.257   0.255   0.253   0.250   0.249
   16 304     7     529     238       0       0       5       0       0       0     210    0.00     0.0     0.0    0.00    0.00   0.119   0.247   0.247   0.253   0.255   0.258   0.263   0.263   0.262   0.260   0.257   0.255   0.253   0.250   0.249
   16 305     8     527     236       0       0       5       0       0       0     210    0.00     0.0     0.0    0.00    0.00   0.087   0.246   0.247   0.253   0.255   0.258   0.263   0.263   0.262   0.260   0.257   0.255   0.253   0.250   0.249
   16 306     9     527     236       0       0       5       0       0       0     210    0.00     0.0     0.0    0.00    0.00   0.072   0.246   0.247   0.253   0.255   0.258   0.263   0.263   0.262   0.260   0.257   0.255   0.253   0.250   0.249
   16 307    10     528     237       0       0       6       0       0       0     210    0.00     0.0     0.0    0.00    0.00   0.091   0.245   0.247   0.254   0.255   0.258   0.263   0.263   0.262   0.260   0.257   0.255   0.253   0.250   0.249
   16 308    11     527     236       0       0       6       0       0       0     210    0.00     0.0     0.0    0.00    0.00   0.072   0.245   0.247   0.254   0.256   0.258   0.263   0.263   0.262   0.260   0.257   0.255   0.253   0.250   0.249
   16 309    12     527     236       0       0       6       0       0       0     210    0.00     0.0     0.0    0.00    0.00   0.076   0.244   0.247   0.254   0.256   0.258   0.263   0.263   0.262   0.260   0.257   0.255   0.253   0.250   0.249
   16 310    13     537     246       0       0      16       0       0       0     210    0.00     0.0     0.0    0.00    0.00   0.259   0.250   0.254   0.255   0.256   0.259   0.263   0.263   0.262   0.260   0.257   0.255   0.253   0.250   0.249
   16 311    14     545     254       0       0      24       0       0       0     210    0.00     0.0     0.0    0.00    0.00   0.310   0.276   0.282   0.267   0.261   0.259   0.263   0.263   0.262   0.260   0.257   0.255   0.253   0.250   0.249
   16 312    15     545     253       0       0      25       0       0       0     210    0.00     0.0     0.0    0.00    0.00   0.269   0.269   0.290   0.273   0.270   0.262   0.263   0.263   0.262   0.260   0.257   0.255   0.253   0.250   0.249
   16 313    16     544     253       0       0      25       0       0       0     210    0.00     0.0     0.0    0.00    0.00   0.247   0.262   0.287   0.276   0.275   0.271   0.263   0.263   0.262   0.260   0.257   0.255   0.253   0.250   0.249
   16 314    17     547     256       0       0      28       0       0       0     210    0.00     0.0     0.0    0.00    0.00   0.263   0.262   0.286   0.278   0.279   0.276   0.270   0.263   0.262   0.260   0.257   0.255   0.253   0.250   0.249
   16 315    18     553     262       0       0      35       0       0       0     210    0.00     0.0     0.0    0.00    0.00   0.306   0.275   0.298   0.281   0.283   0.281   0.278   0.266   0.262   0.260   0.257   0.255   0.253   0.250   0.249
   16 316    19     559     267       0       0      41       0       0       0     210    0.00     0.0     0.0    0.00    0.00   0.311   0.286   0.315   0.288   0.288   0.286   0.284   0.275   0.262   0.260   0.257   0.255   0.253   0.250   0.249
   16 317    20     558     267       0       0      41       0       0       0     210    0.00     0.0     0.0    0.00    0.00   0.266   0.266   0.284   0.275   0.277   0.279   0.280   0.275   0.275   0.273   0.270   0.260   0.253   0.250   0.249
   16 318    21     558     267       0       0      41       0       0       0     210    0.00     0.0     0.0    0.00    0.00   0.245   0.256   0.268   0.268   0.272   0.275   0.278   0.276   0.275   0.273   0.270   0.268   0.266   0.250   0.249
   16 319    22     558     266       0       0      41       0       0       0     210    0.00     0.0     0.0    0.00    0.00   0.231   0.251   0.260   0.265   0.270   0.273   0.278   0.276   0.275   0.273   0.270   0.268   0.266   0.259   0.249
   16 320    23     562     271       0       0      46       0       0       0     210    0.00     0.0     0.0    0.00    0.00   0.282   0.260   0.270   0.268   0.271   0.274   0.278   0.279   0.275   0.273   0.270   0.268   0.266   0.259   0.249
   16 321    24     571     279       0       0      55       0       0       0     210    0.00     0.0     0.0    0.00    0.00   0.312   0.286   0.302   0.277   0.277   0.278   0.281   0.280   0.277   0.273   0.270   0.268   0.266   0.259   0.249
   16 322    25     570     279       0       0      56       0       0       0     210    0.00     0.0     0.0    0.00    0.00   0.270   0.276   0.307   0.283   0.283   0.282   0.284   0.282   0.277   0.275   0.270   0.268   0.266   0.259   0.249
   16 323    26     577     285       0       0      62       0       0       0     210    0.00     0.0     0.0    0.00    0.00   0.311   0.283   0.316   0.289   0.288   0.287   0.288   0.285   0.278   0.276   0.273   0.268   0.266   0.259   0.250
   16 324    27     584     293       0       0      70       0       0       0     210    0.00     0.0     0.0    0.00    0.00   0.315   0.299   0.324   0.300   0.297   0.294   0.293   0.289   0.280   0.277   0.273   0.270   0.267   0.259   0.250
   16 325    28     573     281       0      10      70       0       0       0     210    0.00     0.0     0.0    0.00    0.00   0.254   0.273   0.288   0.281   0.282   0.282   0.285   0.283   0.277   0.275   0.272   0.270   0.267   0.263   0.262
   16 326    29     566     275       0      16      70       0       0       0     210    0.00     0.0     0.0    0.00    0.00   0.228   0.259   0.270   0.271   0.274   0.277   0.280   0.279   0.277   0.275   0.272   0.270   0.267   0.263   0.262
   16 327    30     563     272       0      19      70       0       0       0     210    0.00     0.0     0.0    0.00    0.00   0.216   0.253   0.261   0.267   0.271   0.274   0.278   0.278   0.277   0.275   0.272   0.270   0.267   0.263   0.262
   16 328    31     561     270       0      20      70       0       0       0     210    0.00     0.0     0.0    0.00    0.00   0.200   0.249   0.257   0.264   0.269   0.274   0.278   0.278   0.277   0.275   0.272   0.270   0.267   0.263   0.262
   16 329    32     560     269       0      20      70       0       0       0     210    0.00     0.0     0.0    0.00    0.00   0.192   0.248   0.254   0.264   0.269   0.274   0.278   0.278   0.277   0.275   0.272   0.270   0.267   0.263   0.262
   16 330    33     560     269       0      20      70       0       0       0     210    0.00     0.0     0.0    0.00    0.00   0.183   0.248   0.254   0.264   0.269   0.274   0.278   0.278   0.277   0.275   0.272   0.270   0.267   0.263   0.262
   16 331    34     560     268       0      20      70       0       0       0     210    0.00     0.0     0.0    0.00    0.00   0.180   0.248   0.254   0.264   0.269   0.274   0.278   0.278   0.277   0.275   0.272   0.270   0.267   0.263   0.262
   16 332    35     559     268       0      20      70       0       0       0     210    0.00     0.0     0.0    0.00    0.00   0.173   0.248   0.254   0.264   0.269   0.274   0.278   0.278   0.277   0.275   0.272   0.270   0.267   0.263   0.262
   16 333    36     559     268       0      20      70       0       0       0     210    0.00     0.0     0.0    0.00    0.00   0.167   0.248   0.254   0.264   0.269   0.274   0.278   0.278   0.277   0.275   0.272   0.270   0.267   0.263   0.262
   16 334    37     559     268       0      20      70       0       0       0     210    0.00     0.0     0.0    0.00    0.00   0.161   0.248   0.254   0.264   0.269   0.274   0.278   0.278   0.277   0.275   0.272   0.270   0.267   0.263   0.262
   16 335    38     558     267       0      20      70       0       0       0     210    0.00     0.0     0.0    0.00    0.00   0.152   0.248   0.254   0.264   0.269   0.274   0.278   0.278   0.277   0.275   0.272   0.270   0.267   0.263   0.262
   16 336    39     558     267       0      20      70       0       0       0     210    0.00     0.0     0.0    0.00    0.00   0.146   0.248   0.254   0.264   0.269   0.274   0.278   0.278   0.277   0.275   0.272   0.270   0.267   0.263   0.262
   16 337    40     559     267       0      20      71       0       0       0     210    0.00     0.0     0.0    0.00    0.00   0.159   0.248   0.254   0.264   0.269   0.274   0.278   0.278   0.277   0.275   0.272   0.270   0.267   0.263   0.262
   16 338    41     559     267       0      20      71       0       0       0     210    0.00     0.0     0.0    0.00    0.00   0.154   0.248   0.254   0.264   0.269   0.274   0.278   0.278   0.277   0.275   0.272   0.270   0.267   0.263   0.262
   16 339    42     558     267       0      20      71       0       0       0     210    0.00     0.0     0.0    0.00    0.00   0.151   0.248   0.254   0.264   0.269   0.274   0.278   0.278   0.277   0.275   0.272   0.270   0.267   0.263   0.262
   16 340    43     558     267       0      20      71       0       0       0     210    0.00     0.0     0.0    0.00    0.00   0.150   0.248   0.254   0.264   0.269   0.274   0.278   0.278   0.277   0.275   0.272   0.270   0.267   0.263   0.262
   16 341    44     558     267       0      20      71       0       0       0     210    0.00     0.0     0.0    0.00    0.00   0.147   0.248   0.254   0.264   0.269   0.274   0.278   0.278   0.277   0.275   0.272   0.270   0.267   0.263   0.262
   16 342    45     558     267       0      20      71       0       0       0     210    0.00     0.0     0.0    0.00    0.00   0.145   0.248   0.254   0.264   0.269   0.274   0.278   0.278   0.277   0.275   0.272   0.270   0.267   0.263   0.262
   16 343    46     558     266       0      20      71       0       0       0     210    0.00     0.0     0.0    0.00    0.00   0.135   0.248   0.254   0.264   0.269   0.274   0.278   0.278   0.277   0.275   0.272   0.270   0.267   0.263   0.262
   16 344    47     557     266       0      20      71       0       0       0     210    0.00     0.0     0.0    0.00    0.00   0.122   0.248   0.254   0.264   0.269   0.274   0.278   0.278   0.277   0.275   0.272   0.270   0.267   0.263   0.262
   16 345    48     556     265       0      20      71       0       0       0     210    0.00     0.0     0.0    0.00    0.00   0.104   0.248   0.254   0.264   0.269   0.274   0.278   0.278   0.277   0.275   0.272   0.270   0.267   0.263   0.262
   16 346    49     557     266       0      20      73       0       0       0     210    0.00     0.0     0.0    0.00    0.00   0.131   0.247   0.254   0.264   0.269   0.274   0.278   0.278   0.277   0.275   0.272   0.270   0.267   0.263   0.262
   16 347    50     557     266       0      20      73       0       0       0     210    0.00     0.0     0.0    0.00    0.00   0.127   0.247   0.254   0.264   0.269   0.274   0.278   0.278   0.277   0.275   0.272   0.270   0.267   0.263   0.262
   16 348    51     557     266       0      20      73       0       0       0     210    0.00     0.0     0.0    0.00    0.00   0.121   0.247   0.254   0.264   0.269   0.274   0.278   0.278   0.277   0.275   0.272   0.270   0.267   0.263   0.262
   16 349    52     556     265       0      20      73       0       0       0     210    0.00     0.0     0.0    0.00    0.00   0.112   0.247   0.254   0.264   0.269   0.274   0.278   0.278   0.277   0.275   0.272   0.270   0.267   0.263   0.262
   16 350    53     556     265       0      20      73       0       0       0     210    0.00     0.0     0.0    0.00    0.00   0.108   0.247   0.254   0.264   0.269   0.274   0.278   0.278   0.277   0.275   0.272   0.270   0.267   0.263   0.262
   16 351    54     556     265       0      20      73       0       0       0     210    0.00     0.0     0.0    0.00    0.00   0.107   0.247   0.254   0.264   0.269   0.274   0.278   0.278   0.277   0.275   0.272   0.270   0.267   0.263   0.262
   16 352    55     556     265       0      20      73       0       0       0     210    0.00     0.0     0.0    0.00    0.00   0.105   0.247   0.254   0.264   0.269   0.274   0.278   0.278   0.277   0.275   0.272   0.270   0.267   0.263   0.262
   16 353    56     556     265       0      20      74       0       0       0     210    0.00     0.0     0.0    0.00    0.00   0.107   0.247   0.254   0.264   0.269   0.274   0.278   0.278   0.277   0.275   0.272   0.270   0.267   0.263   0.262
   16 354    57     556     265       0      20      74       0       0       0     210    0.00     0.0     0.0    0.00    0.00   0.104   0.247   0.254   0.264   0.269   0.274   0.278   0.278   0.277   0.275   0.272   0.270   0.267   0.263   0.262
   16 355    58     556     265       0      20      74       0       0       0     210    0.00     0.0     0.0    0.00    0.00   0.102   0.247   0.254   0.264   0.269   0.274   0.278   0.278   0.277   0.275   0.272   0.270   0.267   0.263   0.262
   16 356    59     556     265       0      20      74       0       0       0     210    0.00     0.0     0.0    0.00    0.00   0.101   0.247   0.254   0.264   0.269   0.274   0.278   0.278   0.277   0.275   0.272   0.270   0.267   0.263   0.262
   16 357    60     556     264       0      20      74       0       0       0     210    0.00     0.0     0.0    0.00    0.00   0.099   0.247   0.254   0.264   0.269   0.274   0.278   0.278   0.277   0.275   0.272   0.270   0.267   0.263   0.262
   16 358    61     556     265       0      20      75       0       0       0     210    0.00     0.0     0.0    0.00    0.00   0.108   0.247   0.254   0.264   0.269   0.274   0.278   0.278   0.277   0.275   0.272   0.270   0.267   0.263   0.262
   16 359    62     557     265       0      20      75       0       0       0     210    0.00     0.0     0.0    0.00    0.00   0.119   0.247   0.254   0.264   0.269   0.274   0.278   0.278   0.277   0.275   0.272   0.270   0.267   0.263   0.262
   16 360    63     556     265       0      20      75       0       0       0     210    0.00     0.0     0.0    0.00    0.00   0.111   0.247   0.254   0.264   0.269   0.274   0.278   0.278   0.277   0.275   0.272   0.270   0.267   0.263   0.262
   16 361    64     557     266       0      20      76       0       0       0     210    0.00     0.0     0.0    0.00    0.00   0.121   0.247   0.254   0.264   0.269   0.274   0.278   0.278   0.277   0.275   0.272   0.270   0.267   0.263   0.262
   16 362    65     557     265       0      20      76       0       0       0     210    0.00     0.0     0.0    0.00    0.00   0.114   0.247   0.254   0.264   0.269   0.274   0.278   0.278   0.277   0.275   0.272   0.270   0.267   0.263   0.262
   16 363    66     556     265       0      20      76       0       0       0     210    0.00     0.0     0.0    0.00    0.00   0.108   0.247   0.254   0.264   0.269   0.274   0.278   0.278   0.277   0.275   0.272   0.270   0.267   0.263   0.262
   16 364    67     556     264       0      20      76       0       0       0     210    0.00     0.0     0.0    0.00    0.00   0.100   0.247   0.254   0.264   0.269   0.274   0.278   0.278   0.277   0.275   0.272   0.270   0.267   0.263   0.262
   16 365    68     556     264       0      20      76       0       0       0     210    0.00     0.0     0.0    0.00    0.00   0.095   0.247   0.254   0.264   0.269   0.274   0.278   0.278   0.277   0.275   0.272   0.270   0.267   0.263   0.262
   16 366    69     555     264       0      20      76       0       0       0     210    0.00     0.0     0.0    0.00    0.00   0.093   0.247   0.254   0.264   0.269   0.274   0.278   0.278   0.277   0.275   0.272   0.270   0.267   0.263   0.262
   17 001    70     555     264       0      20      76       0       0       0     210    0.00     0.0     0.0    0.00    0.00   0.091   0.247   0.254   0.264   0.269   0.274   0.278   0.278   0.277   0.275   0.272   0.270   0.267   0.263   0.262
   17 002    71     555     264       0      20      78       0       0       0     210    0.00     0.0     0.0    0.00    0.00   0.090   0.247   0.254   0.264   0.269   0.274   0.278   0.278   0.277   0.275   0.272   0.270   0.267   0.263   0.262
   17 003    72     555     264       0      20      78       0       0       0     210    0.00     0.0     0.0    0.00    0.00   0.087   0.247   0.254   0.264   0.269   0.274   0.278   0.278   0.277   0.275   0.272   0.270   0.267   0.263   0.262
   17 004    73     555     264       0      20      79       0       0       0     210    0.00     0.0     0.0    0.00    0.00   0.085   0.247   0.254   0.264   0.269   0.274   0.278   0.278   0.277   0.275   0.272   0.270   0.267   0.263   0.262
   17 005    74     555     264       0      20      79       0       0       0     210    0.00     0.0     0.0    0.00    0.00   0.083   0.247   0.254   0.264   0.269   0.274   0.278   0.278   0.277   0.275   0.272   0.270   0.267   0.263   0.262
   17 006    75     555     264       0      20      79       0       0       0     210    0.00     0.0     0.0    0.00    0.00   0.082   0.247   0.254   0.264   0.269   0.274   0.278   0.278   0.277   0.275   0.272   0.270   0.267   0.263   0.262
   17 007    76     555     264       0      20      82       0       0       0     210    0.00     0.0     0.0    0.00    0.00   0.082   0.247   0.254   0.264   0.269   0.274   0.278   0.278   0.277   0.275   0.272   0.270   0.267   0.263   0.262
   17 008    77     555     264       0      20      82       0       0       0     210    0.00     0.0     0.0    0.00    0.00   0.080   0.247   0.254   0.264   0.269   0.274   0.278   0.278   0.277   0.275   0.272   0.270   0.267   0.263   0.262
   17 009    78     555     263       0      20      82       0       0       0     210    0.00     0.0     0.0    0.00    0.00   0.079   0.247   0.254   0.264   0.269   0.274   0.278   0.278   0.277   0.275   0.272   0.270   0.267   0.263   0.262
   17 010    79     555     263       0      20      82       0       0       0     210    0.00     0.0     0.0    0.00    0.00   0.078   0.247   0.254   0.264   0.269   0.274   0.278   0.278   0.277   0.275   0.272   0.270   0.267   0.263   0.262
   17 011    80     556     264       0      20      84       0       0       0     210    0.00     0.0     0.0    0.00    0.00   0.098   0.247   0.254   0.264   0.269   0.274   0.278   0.278   0.277   0.275   0.272   0.270   0.267   0.263   0.262
   17 012    81     566     275       0      20      94       0       0       0     210    0.00     0.0     0.0    0.00    0.00   0.274   0.255   0.262   0.266   0.270   0.274   0.278   0.278   0.277   0.275   0.272   0.270   0.269   0.263   0.262
   17 013    82     564     273       0      22      94       0       0       0     210    0.00     0.0     0.0    0.00    0.00   0.249   0.251   0.257   0.264   0.270   0.274   0.278   0.278   0.277   0.275   0.272   0.270   0.269   0.263   0.262
   17 014    83     563     272       0      22      94       0       0       0     210    0.00     0.0     0.0    0.00    0.00   0.241   0.248   0.255   0.264   0.270   0.274   0.278   0.278   0.277   0.275   0.272   0.270   0.269   0.263   0.262
   17 015    84     563     272       0      23      95       0       0       0     210    0.00     0.0     0.0    0.00    0.00   0.236   0.248   0.255   0.264   0.270   0.274   0.278   0.278   0.277   0.275   0.272   0.270   0.269   0.263   0.262
   17 016    85     563     272       0      23      95       0       0       0     210    0.00     0.0     0.0    0.00    0.00   0.234   0.248   0.255   0.264   0.270   0.274   0.278   0.278   0.277   0.275   0.272   0.270   0.269   0.263   0.262
   17 017    86     563     271       0      23      95       0       0       0     210    0.00     0.0     0.0    0.00    0.00   0.232   0.248   0.255   0.264   0.270   0.274   0.278   0.278   0.277   0.275   0.272   0.270   0.269   0.263   0.262
   17 018    87     563     271       0      23      95       0       0       0     210    0.00     0.0     0.0    0.00    0.00   0.231   0.248   0.255   0.264   0.270   0.274   0.278   0.278   0.277   0.275   0.272   0.270   0.269   0.263   0.262
   17 019    88     563     271       0      23      95       0       0       0     210    0.00     0.0     0.0    0.00    0.00   0.228   0.248   0.255   0.264   0.270   0.274   0.278   0.278   0.277   0.275   0.272   0.270   0.269   0.263   0.262
   17 020    89     562     271       0      23      95       0       0       0     210    0.00     0.0     0.0    0.00    0.00   0.225   0.248   0.255   0.264   0.270   0.274   0.278   0.278   0.277   0.275   0.272   0.270   0.269   0.263   0.262
   17 021    90     562     271       0      23      95       0       0       0     210    0.00     0.0     0.0    0.00    0.00   0.223   0.248   0.255   0.264   0.270   0.274   0.278   0.278   0.277   0.275   0.272   0.270   0.269   0.263   0.262
   17 022    91     562     271       0      23      95       0       0       0     210    0.00     0.0     0.0    0.00    0.00   0.222   0.248   0.255   0.264   0.270   0.274   0.278   0.278   0.277   0.275   0.272   0.270   0.269   0.263   0.262
   17 023    92     562     271       0      23      95       0       0       0     210    0.00     0.0     0.0    0.00    0.00   0.222   0.248   0.255   0.264   0.270   0.274   0.278   0.278   0.277   0.275   0.272   0.270   0.269   0.263   0.262
   17 024    93     562     271       0      23      95       0       0       0     210    0.00     0.0     0.0    0.00    0.00   0.221   0.248   0.255   0.264   0.270   0.274   0.278   0.278   0.277   0.275   0.272   0.270   0.269   0.263   0.262
   17 025    94     562     271       0      23      95       0       0       0     210    0.00     0.0     0.0    0.00    0.00   0.220   0.248   0.255   0.264   0.270   0.274   0.278   0.278   0.277   0.275   0.272   0.270   0.269   0.263   0.262
   17 026    95     562     271       0      23      95       0       0       0     210    0.00     0.0     0.0    0.00    0.00   0.217   0.248   0.255   0.264   0.270   0.274   0.278   0.278   0.277   0.275   0.272   0.270   0.269   0.263   0.262
   17 027    96     562     270       0      23      95       0       0       0     210    0.00     0.0     0.0    0.00    0.00   0.211   0.248   0.255   0.264   0.270   0.274   0.278   0.278   0.277   0.275   0.272   0.270   0.269   0.263   0.262
   17 028    97     562     270       0      23      95       0       0       0     210    0.00     0.0     0.0    0.00    0.00   0.208   0.248   0.255   0.264   0.270   0.274   0.278   0.278   0.277   0.275   0.272   0.270   0.269   0.263   0.262
   17 029    98     561     270       0      23      95       0       0       0     210    0.00     0.0     0.0    0.00    0.00   0.199   0.248   0.255   0.264   0.270   0.274   0.278   0.278   0.277   0.275   0.272   0.270   0.269   0.263   0.262
   17 030    99     564     273       0      23      99       0       0       0     210    0.00     0.0     0.0    0.00    0.00   0.245   0.250   0.258   0.264   0.270   0.274   0.279   0.278   0.278   0.275   0.272   0.270   0.269   0.263   0.262
   17 031   100     569     278       0      23     104       0       0       0     210    0.00     0.0     0.0    0.00    0.00   0.295   0.262   0.271   0.268   0.271   0.274   0.279   0.279   0.277   0.275   0.272   0.270   0.268   0.265   0.262
   17 032   101     566     274       0      26     104       0       0       0     210    0.00     0.0     0.0    0.00    0.00   0.260   0.254   0.262   0.265   0.269   0.273   0.278   0.279   0.277   0.275   0.272   0.270   0.268   0.265   0.262
   17 033   102     564     272       0      27     104       0       0       0     210    0.00     0.0     0.0    0.00    0.00   0.235   0.250   0.257   0.265   0.269   0.273   0.278   0.279   0.277   0.275   0.272   0.270   0.268   0.265   0.262
   17 034   103     563     272       0      27     105       0       0       0     210    0.00     0.0     0.0    0.00    0.00   0.229   0.248   0.256   0.265   0.269   0.273   0.278   0.278   0.277   0.275   0.272   0.270   0.268   0.265   0.264
   17 035   104     563     271       0      27     105       0       0       0     210    0.00     0.0     0.0    0.00    0.00   0.214   0.248   0.254   0.264   0.269   0.273   0.278   0.278   0.278   0.275   0.272   0.270   0.268   0.265   0.264
   17 036   105     562     270       0      27     105       0       0       0     210    0.00     0.0     0.0    0.00    0.00   0.191   0.248   0.254   0.264   0.269   0.273   0.278   0.278   0.278   0.275   0.272   0.270   0.268   0.265   0.264
   17 037   106     561     270       0      27     105       0       0       0     210    0.00     0.0     0.0    0.00    0.00   0.183   0.248   0.254   0.264   0.269   0.273   0.278   0.278   0.278   0.275   0.272   0.270   0.268   0.265   0.264
   17 038   107     560     269       0      27     105       0       0       0     210    0.00     0.0     0.0    0.00    0.00   0.165   0.248   0.254   0.264   0.269   0.273   0.278   0.278   0.278   0.275   0.272   0.270   0.268   0.265   0.264
   17 039   108     560     269       0      27     105       0       0       0     210    0.00     0.0     0.0    0.00    0.00   0.159   0.248   0.254   0.264   0.269   0.273   0.278   0.278   0.278   0.275   0.272   0.270   0.268   0.265   0.264
   17 040   109     560     268       0      27     105       0       0       0     210    0.00     0.0     0.0    0.00    0.00   0.155   0.248   0.254   0.264   0.269   0.273   0.278   0.278   0.278   0.275   0.272   0.270   0.268   0.265   0.264
   17 041   110     560     268       0      27     105       0       0       0     210    0.00     0.0     0.0    0.00    0.00   0.152   0.248   0.254   0.264   0.269   0.273   0.278   0.278   0.278   0.275   0.272   0.270   0.268   0.265   0.264
   17 042   111     559     267       0      27     105       0       0       0     210    0.00     0.0     0.0    0.00    0.00   0.137   0.248   0.254   0.264   0.269   0.273   0.278   0.278   0.278   0.275   0.272   0.270   0.268   0.265   0.264
   17 043   112     559     267       0      27     105       0       0       0     210    0.00     0.0     0.0    0.00    0.00   0.133   0.248   0.254   0.264   0.269   0.273   0.278   0.278   0.278   0.275   0.272   0.270   0.268   0.265   0.264
   17 044   113     558     267       0      27     105       0       0       0     210    0.00     0.0     0.0    0.00    0.00   0.123   0.248   0.254   0.264   0.269   0.273   0.278   0.278   0.278   0.275   0.272   0.270   0.268   0.265   0.264
   17 045   114     557     265       0      27     105       0       0       0     210    0.00     0.0     0.0    0.00    0.00   0.095   0.248   0.254   0.264   0.269   0.273   0.278   0.278   0.278   0.275   0.272   0.270   0.268   0.265   0.264
   17 046   115     556     264       0      27     105       0       0       0     210    0.00     0.0     0.0    0.00    0.00   0.072   0.248   0.254   0.264   0.269   0.273   0.278   0.278   0.278   0.275   0.272   0.270   0.268   0.265   0.264
   17 047   116     558     267       0      27     107       0       0       0     210    0.00     0.0     0.0    0.00    0.00   0.120   0.248   0.254   0.264   0.269   0.273   0.278   0.278   0.278   0.275   0.272   0.270   0.268   0.265   0.264
   17 048   117     562     271       0      27     112       0       0       0     210    0.00     0.0     0.0    0.00    0.00   0.208   0.247   0.254   0.264   0.269   0.273   0.278   0.278   0.278   0.275   0.272   0.270   0.268   0.265   0.264
   17 049   118     562     270       0      27     112       0       0       0     210    0.00     0.0     0.0    0.00    0.00   0.192   0.247   0.254   0.264   0.269   0.273   0.278   0.278   0.278   0.275   0.272   0.270   0.268   0.265   0.264
   17 050   119     561     270       0      27     113       0       0       0     210    0.00     0.0     0.0    0.00    0.00   0.182   0.247   0.254   0.264   0.269   0.273   0.278   0.278   0.278   0.275   0.272   0.270   0.268   0.265   0.264
   17 051   120     562     271       0      27     115       0       0       0     210    0.00     0.0     0.0    0.00    0.00   0.201   0.247   0.254   0.264   0.269   0.273   0.278   0.278   0.278   0.275   0.272   0.270   0.268   0.265   0.264
   17 052   121     566     275       0      28     120       0       0       0     210    0.00     0.0     0.0    0.00    0.00   0.262   0.254   0.261   0.265   0.270   0.273   0.278   0.278   0.277   0.275   0.272   0.270   0.268   0.265   0.264
   17 053   122     564     273       0      29     120       0       0       0     210    0.00     0.0     0.0    0.00    0.00   0.235   0.250   0.257   0.264   0.270   0.273   0.278   0.278   0.277   0.275   0.272   0.270   0.268   0.265   0.264
   17 054   123     562     271       0      30     120       0       0       0     210    0.00     0.0     0.0    0.00    0.00   0.202   0.248   0.254   0.264   0.270   0.273   0.278   0.278   0.277   0.275   0.272   0.270   0.268   0.265   0.264
   17 055   124     561     269       0      30     120       0       0       0     210    0.00     0.0     0.0    0.00    0.00   0.179   0.248   0.254   0.264   0.270   0.273   0.278   0.278   0.277   0.275   0.272   0.270   0.268   0.265   0.264
   17 056   125     559     268       0      30     120       0       0       0     210    0.00     0.0     0.0    0.00    0.00   0.142   0.248   0.254   0.264   0.270   0.273   0.278   0.278   0.277   0.275   0.272   0.270   0.268   0.265   0.264
   17 057   126     558     267       0      30     120       0       0       0     210    0.00     0.0     0.0    0.00    0.00   0.123   0.247   0.254   0.263   0.270   0.273   0.278   0.278   0.277   0.275   0.272   0.270   0.268   0.265   0.264
   17 058   127     556     265       0      30     120       0       0       0     210    0.00     0.0     0.0    0.00    0.00   0.085   0.247   0.254   0.263   0.269   0.273   0.278   0.278   0.277   0.275   0.272   0.270   0.268   0.265   0.264
   17 059   128     568     276       0      30     133       0       0       0     210    0.00     0.0     0.0    0.00    0.00   0.284   0.257   0.265   0.266   0.270   0.274   0.278   0.278   0.277   0.275   0.272   0.270   0.268   0.265   0.264
   17 060   129     572     281       0      30     138       0       0       0     210    0.00     0.0     0.0    0.00    0.00   0.301   0.269   0.281   0.271   0.273   0.276   0.279   0.279   0.278   0.275   0.272   0.270   0.268   0.265   0.264
   17 061   130     570     279       0      30     138       0       0       0     210    0.00     0.0     0.0    0.00    0.00   0.237   0.265   0.286   0.275   0.277   0.278   0.281   0.280   0.278   0.275   0.272   0.270   0.268   0.265   0.264
   17 062   131     565     273       0      34     138       0       0       0     210    0.00     0.0     0.0    0.00    0.00   0.211   0.255   0.269   0.268   0.272   0.275   0.279   0.278   0.278   0.275   0.272   0.270   0.268   0.265   0.264
   17 063   132     562     270       0      36     138       0       0       0     210    0.00     0.0     0.0    0.00    0.00   0.183   0.248   0.260   0.265   0.269   0.273   0.279   0.278   0.278   0.275   0.272   0.270   0.268   0.265   0.264
   17 064   133     562     271       0      36     141       0       0       0     210    0.00     0.0     0.0    0.00    0.00   0.217   0.242   0.255   0.264   0.269   0.273   0.278   0.278   0.277   0.275   0.272   0.270   0.268   0.265   0.264
   17 065   134     563     271       0      36     143       0       0       0     210    0.00     0.0     0.0    0.00    0.00   0.228   0.245   0.252   0.264   0.269   0.273   0.278   0.278   0.278   0.275   0.272   0.270   0.268   0.265   0.264
   17 066   135     562     271       0      36     143       0       0       0     210    0.00     0.0     0.0    0.00    0.00   0.217   0.244   0.252   0.263   0.269   0.273   0.278   0.278   0.278   0.275   0.272   0.270   0.268   0.265   0.264
   17 067   136     568     277       0      37     151       0       0       0     210    0.00     0.0     0.0    0.00    0.00   0.292   0.258   0.265   0.266   0.270   0.273   0.278   0.278   0.277   0.275   0.272   0.270   0.268   0.265   0.264
   17 068   137     581     289       0      37     164       0       0       0     210    0.00     0.0     0.0    0.28    0.00   0.310   0.312   0.324   0.282   0.279   0.278   0.281   0.279   0.277   0.275   0.272   0.270   0.268   0.265   0.264
   17 069   138     570     279       0      46     164       0       0       0     210    0.00     0.0     0.0    0.00    0.00   0.247   0.279   0.288   0.272   0.273   0.275   0.278   0.278   0.277   0.275   0.272   0.270   0.268   0.265   0.264
   17 070   139     565     273       0      50     164       0       0       0     210    0.00     0.0     0.0    0.00    0.00   0.208   0.262   0.270   0.267   0.270   0.273   0.278   0.278   0.277   0.275   0.272   0.270   0.268   0.265   0.264
   17 071   140     561     270       0      52     164       0       0       0     210    0.00     0.0     0.0    0.00    0.00   0.175   0.250   0.260   0.264   0.270   0.273   0.278   0.278   0.277   0.275   0.272   0.270   0.268   0.265   0.264
   17 072   141     559     268       0      52     164       0       0       0     210    0.00     0.0     0.0    0.00    0.00   0.154   0.242   0.256   0.264   0.269   0.273   0.278   0.278   0.277   0.275   0.272   0.270   0.268   0.265   0.264
   17 073   142     557     266       0      52     164       0       0       0     210    0.00     0.0     0.0    0.00    0.00   0.136   0.236   0.251   0.264   0.269   0.272   0.278   0.278   0.277   0.275   0.272   0.270   0.268   0.265   0.264
   17 074   143     556     264       0      52     164       0       0       0     210    0.00     0.0     0.0    0.00    0.00   0.123   0.231   0.248   0.263   0.268   0.272   0.278   0.278   0.277   0.275   0.272   0.270   0.268   0.265   0.264
   17 075   144     554     262       0      52     164       0       0       0     210    0.00     0.0     0.0    0.00    0.00   0.098   0.225   0.246   0.262   0.268   0.272   0.278   0.278   0.277   0.275   0.272   0.270   0.268   0.265   0.264
   17 076   145     553     261       0      52     166       0       0       0     210    0.00     0.0     0.0    0.00    0.00   0.115   0.217   0.241   0.259   0.266   0.272   0.278   0.278   0.277   0.275   0.272   0.270   0.268   0.265   0.264
   17 077   146     555     264       0      52     170       0       0       0     210    0.00     0.0     0.0    0.00    0.00   0.197   0.208   0.235   0.256   0.264   0.271   0.278   0.278   0.277   0.275   0.272   0.270   0.268   0.265   0.264
   17 078   147     555     264       0      52     171       0       0       0     210    0.00     0.0     0.0    0.00    0.00   0.196   0.209   0.235   0.255   0.264   0.270   0.278   0.278   0.277   0.275   0.272   0.270   0.268   0.265   0.264
   17 079   148     554     262       0      52     171       0       0       0     210    0.00     0.0     0.0    0.00    0.00   0.176   0.210   0.234   0.254   0.264   0.270   0.278   0.278   0.277   0.275   0.272   0.270   0.268   0.265   0.264
   17 080   149     554     263       0      52     172       0       0       0     210    0.00     0.0     0.0    0.00    0.00   0.193   0.208   0.232   0.252   0.263   0.269   0.278   0.278   0.277   0.275   0.272   0.270   0.268   0.265   0.264
   17 081   150     555     264       0      52     174       0       0       0     210    0.00     0.0     0.0    0.00    0.00   0.220   0.208   0.231   0.251   0.262   0.269   0.278   0.278   0.277   0.275   0.272   0.270   0.268   0.265   0.264
   17 082   151     554     263       0      52     174       0       0       0     210    0.00     0.0     0.0    0.00    0.00   0.201   0.210   0.231   0.251   0.262   0.269   0.278   0.278   0.277   0.275   0.272   0.270   0.268   0.265   0.264
   17 083   152     553     262       0      52     174       0       0       0     210    0.00     0.0     0.0    0.00    0.00   0.190   0.210   0.230   0.249   0.261   0.268   0.277   0.278   0.277   0.275   0.272   0.270   0.268   0.265   0.264
   17 084   153     552     261       0      52     174       0       0       0     210    0.00     0.0     0.0    0.00    0.00   0.175   0.209   0.229   0.249   0.260   0.268   0.277   0.278   0.277   0.275   0.272   0.270   0.268   0.265   0.264
   17 085   154     550     259       0      52     174       0       0       0     210    0.00     0.0     0.0    0.00    0.00   0.153   0.207   0.227   0.247   0.259   0.267   0.276   0.278   0.277   0.275   0.272   0.270   0.268   0.265   0.264
   17 086   155     548     257       0      52     174       0       0       0     210    0.00     0.0     0.0    0.00    0.00   0.128   0.204   0.225   0.245   0.258   0.266   0.275   0.278   0.277   0.275   0.272   0.270   0.268   0.265   0.264
   17 087   156     545     254       0      52     174       0       0       0     210    0.00     0.0     0.0    0.00    0.00   0.106   0.197   0.220   0.242   0.255   0.264   0.273   0.278   0.277   0.275   0.272   0.270   0.268   0.265   0.264
   17 088   157     542     250       0      52     174       0       0       0     210    0.00     0.0     0.0    0.00    0.00   0.091   0.187   0.213   0.237   0.251   0.260   0.273   0.277   0.277   0.275   0.272   0.270   0.268   0.265   0.264
   17 089   158     539     248       0      52     174       0       0       0     210    0.00     0.0     0.0    0.00    0.00   0.075   0.180   0.208   0.233   0.248   0.257   0.273   0.277   0.277   0.275   0.272   0.270   0.268   0.265   0.264
   17 090   159     537     245       0      52     174       0       0       0     210    0.00     0.0     0.0    0.00    0.00   0.075   0.174   0.202   0.228   0.244   0.255   0.270   0.277   0.277   0.275   0.272   0.270   0.268   0.265   0.264
   17 091   160     533     242       0      52     174       0       0       0     210    0.00     0.0     0.0    0.00    0.00   0.074   0.167   0.194   0.222   0.239   0.250   0.266   0.276   0.277   0.275   0.272   0.270   0.268   0.265   0.264
   17 092   161     531     239       0      52     174       0       0       0     210    0.00     0.0     0.0    0.00    0.00   0.074   0.162   0.188   0.217   0.234   0.247   0.263   0.275   0.277   0.275   0.272   0.270   0.268   0.265   0.264
   17 093   162     533     241       0      52     177       0       0       0     210    0.00     0.0     0.0    0.00    0.00   0.137   0.159   0.184   0.213   0.231   0.244   0.261   0.274   0.277   0.275   0.272   0.270   0.268   0.265   0.264
   17 094   163     532     240       0      52     178       0       0       0     210    0.00     0.0     0.0    0.00    0.00   0.138   0.158   0.183   0.212   0.230   0.244   0.261   0.273   0.277   0.275   0.272   0.270   0.268   0.265   0.264
   17 095   164     531     239       0      52     178       0       0       0     210    0.00     0.0     0.0    0.00    0.00   0.129   0.158   0.182   0.210   0.229   0.243   0.260   0.272   0.277   0.275   0.272   0.270   0.268   0.265   0.264
   17 096   165     530     238       0      52     178       0       0       0     210    0.00     0.0     0.0    0.00    0.00   0.122   0.157   0.181   0.209   0.228   0.242   0.260   0.271   0.276   0.275   0.272   0.270   0.268   0.265   0.264
   17 097   166     529     238       0      52     178       0       0       0     210    0.00     0.0     0.0    0.00    0.00   0.109   0.157   0.181   0.208   0.227   0.242   0.260   0.271   0.276   0.275   0.272   0.270   0.268   0.265   0.264
   17 098   167     527     236       0      52     178       0       0       0     210    0.00     0.0     0.0    0.00    0.00   0.095   0.156   0.179   0.206   0.226   0.241   0.259   0.270   0.276   0.275   0.272   0.270   0.268   0.265   0.264
   17 099   168     525     234       0      52     178       0       0       0     210    0.00     0.0     0.0    0.00    0.00   0.080   0.153   0.176   0.203   0.223   0.239   0.257   0.269   0.276   0.275   0.272   0.270   0.268   0.265   0.264
   17 100   169     522     231       0      52     178       0       0       0     210    0.00     0.0     0.0    0.00    0.00   0.073   0.151   0.170   0.198   0.219   0.235   0.254   0.267   0.276   0.275   0.272   0.270   0.268   0.265   0.264
   17 101   170     520     229       0      52     178       0       0       0     210    0.00     0.0     0.0    0.00    0.00   0.073   0.148   0.165   0.193   0.215   0.231   0.251   0.265   0.275   0.275   0.272   0.270   0.268   0.265   0.264
   17 102   171     519     228       0      52     178       0       0       0     210    0.00     0.0     0.0    0.00    0.00   0.073   0.147   0.163   0.192   0.213   0.230   0.250   0.264   0.275   0.275   0.272   0.270   0.268   0.265   0.264
   17 103   172     518     226       0      52     178       0       0       0     210    0.00     0.0     0.0    0.00    0.00   0.073   0.146   0.160   0.189   0.211   0.228   0.248   0.263   0.275   0.275   0.272   0.270   0.268   0.265   0.264
   17 104   173     517     226       0      52     178       0       0       0     210    0.00     0.0     0.0    0.00    0.00   0.072   0.145   0.160   0.188   0.210   0.227   0.247   0.262   0.274   0.275   0.272   0.270   0.268   0.265   0.264
   17 105   174     517     226       0      52     178       0       0       0     210    0.00     0.0     0.0    0.00    0.00   0.086   0.144   0.159   0.187   0.209   0.227   0.247   0.261   0.274   0.275   0.272   0.270   0.268   0.265   0.264
   17 106   175     518     227       0      52     180       0       0       0     210    0.00     0.0     0.0    0.00    0.00   0.120   0.144   0.159   0.186   0.208   0.226   0.246   0.261   0.274   0.275   0.272   0.270   0.268   0.265   0.264
   17 107   176     527     235       0      52     189       0       0       0     210    0.00     0.0     0.0    0.00    0.00   0.266   0.157   0.159   0.186   0.207   0.226   0.246   0.260   0.273   0.275   0.272   0.270   0.268   0.265   0.264
   17 108   177     532     241       0      52     195       0       0       0     210    0.00     0.0     0.0    0.00    0.00   0.302   0.192   0.160   0.186   0.207   0.226   0.246   0.260   0.273   0.275   0.272   0.270   0.268   0.265   0.264
   17 109   178     532     240       0      52     195       0       0       0     210    0.00     0.0     0.0    0.00    0.00   0.262   0.209   0.163   0.186   0.207   0.226   0.246   0.260   0.273   0.275   0.272   0.270   0.268   0.265   0.264
   17 110   179     531     240       0      52     195       0       0       0     210    0.00     0.0     0.0    0.00    0.00   0.236   0.216   0.168   0.186   0.207   0.226   0.246   0.260   0.272   0.275   0.272   0.270   0.268   0.265   0.264
   17 111   180     531     239       0      52     195       0       0       0     210    0.00     0.0     0.0    0.00    0.00   0.221   0.215   0.174   0.186   0.207   0.226   0.246   0.260   0.272   0.275   0.272   0.270   0.268   0.265   0.264
   17 112   181     533     241       0      52     198       0       0       0     210    0.00     0.0     0.0    0.00    0.00   0.254   0.223   0.177   0.186   0.206   0.225   0.245   0.259   0.272   0.275   0.272   0.270   0.268   0.265   0.264
   17 113   182     532     241       0      52     198       0       0       0     210    0.00     0.0     0.0    0.00    0.00   0.234   0.226   0.182   0.186   0.206   0.225   0.245   0.259   0.271   0.274   0.272   0.270   0.268   0.265   0.264
   17 114   183     532     241       0      52     199       0       0       0     210    0.00     0.0     0.0    0.00    0.00   0.227   0.227   0.187   0.186   0.205   0.224   0.245   0.258   0.271   0.274   0.272   0.270   0.268   0.265   0.264
   17 115   184     540     249       0      52     209       0       0       0     210    0.00     0.0     0.0    0.00    0.00   0.311   0.256   0.219   0.185   0.203   0.223   0.243   0.257   0.271   0.274   0.272   0.270   0.268   0.265   0.264
   17 116   185     551     259       0      52     220       0       0       0     210    0.00     0.0     0.0    0.10    0.00   0.318   0.300   0.295   0.208   0.203   0.223   0.243   0.257   0.270   0.274   0.272   0.270   0.268   0.265   0.264
   17 117   186     568     276       2      52     238       0       0       0     210    0.00     0.0     0.0    1.55    0.00   0.319   0.320   0.317   0.305   0.244   0.223   0.243   0.257   0.270   0.274   0.272   0.270   0.268   0.265   0.264
   17 118   187     576     284       2      52     247       0       0       0     210    0.00     0.0     0.0    0.08    0.00   0.318   0.320   0.324   0.320   0.286   0.243   0.243   0.257   0.270   0.274   0.272   0.270   0.268   0.265   0.264
   17 119   188     573     281       2      55     247       0       0       0     210    0.00     0.0     0.0    0.00    0.00   0.268   0.283   0.288   0.291   0.274   0.272   0.277   0.276   0.275   0.274   0.272   0.270   0.268   0.265   0.264
   17 120   189     566     275       2      60     247       0       0       0     210    0.00     0.0     0.0    0.00    0.00   0.237   0.263   0.269   0.276   0.270   0.272   0.276   0.276   0.275   0.274   0.272   0.270   0.268   0.265   0.264
   17 121   190     584     292       3      60     266       0       0       0     210    0.00     0.0     0.0    0.89    0.00   0.313   0.318   0.322   0.299   0.286   0.280   0.280   0.278   0.276   0.274   0.272   0.270   0.268   0.265   0.264
   17 122   191     582     291       3      60     267       0       0       0     210    0.00     0.0     0.0    0.00    0.00   0.270   0.290   0.323   0.301   0.296   0.290   0.287   0.282   0.277   0.275   0.272   0.270   0.268   0.265   0.264
   17 123   192     571     280       3      70     267       0       0       0     210    0.00     0.0     0.0    0.00    0.00   0.244   0.266   0.286   0.281   0.281   0.280   0.281   0.279   0.277   0.275   0.272   0.270   0.268   0.265   0.264
   17 124   193     571     279       3      71     267       0       0       0     210    0.00     0.0     0.0    0.00    0.00   0.241   0.258   0.281   0.278   0.281   0.282   0.284   0.281   0.277   0.275   0.272   0.270   0.268   0.265   0.264
   17 125   194     569     278       3      71     267       0       0       0     210    0.00     0.0     0.0    0.00    0.00   0.231   0.251   0.272   0.274   0.280   0.283   0.286   0.283   0.278   0.275   0.272   0.270   0.268   0.265   0.264
   17 126   195     568     276       3      71     268       0       0       0     210    0.00     0.0     0.0    0.00    0.00   0.221   0.247   0.263   0.270   0.277   0.282   0.286   0.284   0.279   0.276   0.273   0.270   0.268   0.265   0.264
   17 127   196     575     284       3      72     277       0       0       0     210    0.00     0.0     0.0    0.00    0.00   0.317   0.266   0.279   0.272   0.276   0.280   0.285   0.284   0.279   0.277   0.273   0.271   0.268   0.265   0.264
   17 128   197     585     294       3      72     288       0       0       0     210    0.00     0.0     0.0    0.11    0.00   0.318   0.308   0.324   0.286   0.284   0.284   0.287   0.285   0.279   0.277   0.274   0.271   0.269   0.265   0.264
   17 129   198     573     281       3      84     288       0       0       0     210    0.00     0.0     0.0    0.00    0.00   0.269   0.277   0.288   0.274   0.275   0.277   0.281   0.281   0.277   0.275   0.272   0.270   0.269   0.265   0.264
   17 130   199     567     275       3      89     288       0       0       0     210    0.00     0.0     0.0    0.00    0.00   0.238   0.261   0.269   0.268   0.271   0.274   0.278   0.278   0.277   0.275   0.272   0.270   0.269   0.265   0.264
   17 131   200     565     273       3      90     288       0       0       0     210    0.00     0.0     0.0    0.00    0.00   0.224   0.252   0.266   0.267   0.271   0.274   0.278   0.278   0.276   0.275   0.272   0.270   0.268   0.265   0.264
   17 132   201     563     271       3      90     289       0       0       0     210    0.00     0.0     0.0    0.00    0.00   0.216   0.245   0.259   0.265   0.270   0.273   0.277   0.277   0.277   0.275   0.272   0.270   0.268   0.265   0.264
   17 133   202     561     270       3      90     289       0       0       0     210    0.00     0.0     0.0    0.00    0.00   0.207   0.242   0.253   0.262   0.269   0.272   0.277   0.277   0.277   0.275   0.272   0.270   0.268   0.265   0.264
   17 134   203     582     290       4      90     312       0       0       0     210    0.00     0.0     0.0    1.11    0.00   0.314   0.317   0.321   0.285   0.279   0.277   0.279   0.278   0.278   0.275   0.272   0.270   0.268   0.265   0.264
   17 135   204     583     292       4      91     315       0       0       0     210    0.00     0.0     0.0    0.00    0.00   0.306   0.297   0.323   0.298   0.290   0.285   0.284   0.281   0.277   0.275   0.272   0.270   0.268   0.265   0.264
   17 136   205     572     280       4     101     315       0       0       0     210    0.00     0.0     0.0    0.00    0.00   0.256   0.270   0.286   0.279   0.278   0.278   0.280   0.278   0.277   0.275   0.272   0.270   0.268   0.265   0.264
   17 137   206     565     274       4     106     315       0       0       0     210    0.00     0.0     0.0    0.00    0.00   0.226   0.256   0.267   0.269   0.271   0.273   0.277   0.277   0.277   0.275   0.272   0.270   0.268   0.265   0.264
   17 138   207     562     270       4     107     315       0       0       0     210    0.00     0.0     0.0    0.00    0.00   0.210   0.248   0.257   0.264   0.267   0.271   0.275   0.276   0.277   0.275   0.272   0.270   0.268   0.265   0.264
   17 139   208     560     269       4     107     316       0       0       0     210    0.00     0.0     0.0    0.00    0.00   0.219   0.242   0.252   0.263   0.265   0.270   0.274   0.275   0.276   0.275   0.272   0.270   0.268   0.265   0.264
   17 140   209     559     267       4     107     316       0       0       0     210    0.00     0.0     0.0    0.00    0.00   0.204   0.239   0.249   0.261   0.264   0.268   0.273   0.274   0.276   0.275   0.272   0.270   0.268   0.265   0.264
   17 141   210     557     266       4     107     316       0       0       0     210    0.00     0.0     0.0    0.00    0.00   0.193   0.237   0.247   0.259   0.263   0.267   0.272   0.274   0.275   0.275   0.272   0.270   0.268   0.265   0.264
   17 142   211     556     264       4     107     316       0       0       0     210    0.00     0.0     0.0    0.00    0.00   0.180   0.233   0.245   0.258   0.263   0.267   0.272   0.273   0.275   0.275   0.272   0.270   0.268   0.265   0.264
   17 143   212     554     262       4     107     316       0       0       0     210    0.00     0.0     0.0    0.00    0.00   0.166   0.229   0.243   0.256   0.261   0.265   0.271   0.272   0.275   0.275   0.272   0.270   0.268   0.265   0.264
   17 144   213     552     260       4     107     316       0       0       0     210    0.00     0.0     0.0    0.00    0.00   0.159   0.224   0.240   0.254   0.260   0.264   0.270   0.271   0.274   0.275   0.272   0.270   0.268   0.265   0.264
   17 145   214     551     259       4     107     316       0       0       0     210    0.00     0.0     0.0    0.00    0.00   0.151   0.221   0.238   0.253   0.259   0.263   0.269   0.271   0.274   0.275   0.272   0.270   0.268   0.265   0.264
   17 146   215     549     257       4     107     316       0       0       0     210    0.00     0.0     0.0    0.00    0.00   0.136   0.218   0.236   0.251   0.258   0.262   0.268   0.270   0.273   0.275   0.272   0.270   0.268   0.265   0.264
   17 147   216     546     254       4     107     316       0       0       0     210    0.00     0.0     0.0    0.00    0.00   0.120   0.212   0.231   0.247   0.255   0.260   0.266   0.269   0.272   0.275   0.272   0.270   0.268   0.265   0.264
   17 148   217     543     251       4     107     316       0       0       0     210    0.00     0.0     0.0    0.00    0.00   0.104   0.206   0.226   0.244   0.252   0.257   0.264   0.267   0.271   0.274   0.272   0.270   0.268   0.265   0.264
   17 149   218     539     248       4     107     316       0       0       0     210    0.00     0.0     0.0    0.00    0.00   0.091   0.200   0.221   0.239   0.248   0.254   0.261   0.265   0.270   0.274   0.272   0.270   0.268   0.265   0.264
   17 150   219     542     250       4     107     322       0       0       0     210    0.00     0.0     0.0    0.00    0.00   0.203   0.194   0.215   0.234   0.244   0.250   0.258   0.262   0.269   0.274   0.272   0.270   0.268   0.265   0.264
   17 151   220     539     247       4     107     322       0       0       0     210    0.00     0.0     0.0    0.00    0.00   0.180   0.193   0.211   0.231   0.241   0.248   0.256   0.261   0.268   0.273   0.272   0.270   0.268   0.265   0.264
   17 152   221     535     244       4     107     322       0       0       0     210    0.00     0.0     0.0    0.00    0.00   0.156   0.190   0.207   0.226   0.237   0.245   0.253   0.259   0.267   0.273   0.272   0.270   0.268   0.265   0.264
   17 153   222     530     239       4     107     322       0       0       0     210    0.00     0.0     0.0    0.00    0.00   0.133   0.185   0.200   0.220   0.232   0.240   0.249   0.256   0.265   0.272   0.272   0.270   0.268   0.265   0.264
   17 154   223     533     242       4     107     331       0       0       0     210    0.00     0.0     0.0    0.00    0.00   0.258   0.197   0.191   0.213   0.225   0.234   0.244   0.251   0.263   0.271   0.272   0.270   0.268   0.265   0.264
   17 155   224     528     236       4     107     332       0       0       0     210    0.00     0.0     0.0    0.00    0.00   0.217   0.198   0.185   0.206   0.219   0.228   0.239   0.248   0.260   0.270   0.272   0.270   0.268   0.265   0.264
   17 156   225     528     236       4     107     334       0       0       0     210    0.00     0.0     0.0    0.00    0.00   0.230   0.202   0.185   0.204   0.217   0.226   0.238   0.246   0.259   0.270   0.272   0.270   0.268   0.265   0.264
   17 157   226     532     240       4     107     341       0       0       0     210    0.00     0.0     0.0    0.00    0.00   0.290   0.230   0.184   0.201   0.214   0.224   0.235   0.245   0.258   0.269   0.271   0.270   0.268   0.265   0.264
   17 158   227     530     239       4     107     341       0       0       0     210    0.00     0.0     0.0    0.00    0.00   0.248   0.240   0.189   0.200   0.213   0.223   0.235   0.244   0.258   0.269   0.271   0.270   0.268   0.265   0.264
   17 159   228     527     236       4     107     341       0       0       0     210    0.00     0.0     0.0    0.00    0.00   0.215   0.236   0.194   0.199   0.210   0.221   0.233   0.243   0.257   0.269   0.271   0.270   0.268   0.265   0.264
   17 160   229     528     236       4     107     347       0       0       0     210    0.00     0.0     0.0    0.00    0.00   0.265   0.240   0.206   0.194   0.205   0.215   0.228   0.239   0.255   0.268   0.271   0.270   0.268   0.265   0.264
   17 161   230     521     230       4     107     347       0       0       0     210    0.00     0.0     0.0    0.00    0.00   0.210   0.234   0.203   0.191   0.200   0.210   0.224   0.235   0.252   0.267   0.270   0.270   0.268   0.265   0.264
   17 162   231     516     225       4     107     347       0       0       0     210    0.00     0.0     0.0    0.00    0.00   0.176   0.224   0.200   0.189   0.196   0.206   0.220   0.233   0.251   0.266   0.270   0.270   0.268   0.265   0.264
   17 163   232     509     217       4     107     347       0       0       0     210    0.00     0.0     0.0    0.00    0.00   0.148   0.208   0.190   0.183   0.190   0.199   0.214   0.227   0.247   0.264   0.269   0.270   0.268   0.265   0.264
   17 164   233     503     211       4     107     347       0       0       0     210    0.00     0.0     0.0    0.00    0.00   0.120   0.197   0.183   0.180   0.185   0.194   0.209   0.223   0.245   0.263   0.268   0.270   0.268   0.265   0.264
   17 165   234     497     205       4     107     347       0       0       0     210    0.00     0.0     0.0    0.00    0.00   0.103   0.187   0.174   0.176   0.181   0.190   0.203   0.219   0.242   0.262   0.267   0.270   0.268   0.265   0.264
   17 166   235     495     203       4     107     351       0       0       0     210    0.00     0.0     0.0    0.00    0.00   0.156   0.177   0.163   0.171   0.176   0.185   0.197   0.214   0.238   0.260   0.267   0.270   0.268   0.265   0.264
   17 167   236     486     195       4     107     351       0       0       0     210    0.00     0.0     0.0    0.00    0.00   0.119   0.167   0.152   0.166   0.171   0.178   0.190   0.206   0.234   0.258   0.266   0.270   0.268   0.265   0.264
   17 168   237     481     190       4     107     351       0       0       0     210    0.00     0.0     0.0    0.00    0.00   0.098   0.161   0.147   0.162   0.167   0.175   0.186   0.202   0.231   0.256   0.265   0.270   0.268   0.265   0.264
   17 169   238     477     186       4     107     351       0       0       0     210    0.00     0.0     0.0    0.00    0.00   0.073   0.156   0.144   0.160   0.165   0.172   0.183   0.198   0.228   0.255   0.265   0.269   0.268   0.265   0.264
   17 170   239     472     181       4     107     351       0       0       0     210    0.00     0.0     0.0    0.00    0.00   0.073   0.149   0.139   0.156   0.161   0.167   0.178   0.191   0.224   0.253   0.264   0.269   0.268   0.265   0.264
   17 171   240     465     174       4     107     351       0       0       0     210    0.00     0.0     0.0    0.00    0.00   0.079   0.141   0.132   0.150   0.156   0.162   0.171   0.181   0.216   0.249   0.262   0.269   0.268   0.265   0.264
   17 172   241     459     167       4     107     351       0       0       0     210    0.00     0.0     0.0    0.00    0.00   0.072   0.135   0.128   0.146   0.151   0.157   0.165   0.173   0.208   0.245   0.260   0.269   0.268   0.265   0.264
   17 173   242     459     167       4     107     356       0       0       0     210    0.00     0.0     0.0    0.00    0.00   0.170   0.131   0.126   0.143   0.148   0.153   0.161   0.168   0.202   0.241   0.259   0.269   0.268   0.265   0.264
   17 174   243     452     161       4     107     356       0       0       0     210    0.00     0.0     0.0    0.00    0.00   0.114   0.129   0.125   0.141   0.146   0.151   0.158   0.164   0.196   0.238   0.258   0.268   0.268   0.265   0.264
   17 175   244     447     155       4     107     356       0       0       0     210    0.00     0.0     0.0    0.00    0.00   0.083   0.126   0.125   0.139   0.144   0.149   0.155   0.160   0.190   0.234   0.256   0.268   0.268   0.265   0.264
   17 176   245     443     152       4     107     357       0       0       0     210    0.00     0.0     0.0    0.00    0.00   0.092   0.124   0.124   0.137   0.142   0.147   0.153   0.157   0.184   0.230   0.254   0.267   0.268   0.265   0.264
   17 177   246     445     153       4     107     362       0       0       0     210    0.00     0.0     0.0    0.00    0.00   0.158   0.123   0.124   0.136   0.142   0.146   0.152   0.155   0.181   0.227   0.253   0.267   0.268   0.265   0.264
   17 178   247     446     154       4     107     370       0       0       0     210    0.00     0.0     0.0    0.00    0.00   0.223   0.141   0.123   0.135   0.140   0.145   0.150   0.153   0.175   0.221   0.251   0.266   0.268   0.265   0.264
   17 179   248     454     163       4     107     382       0       0       0     210    0.00     0.0     0.0    0.00    0.00   0.266   0.215   0.124   0.135   0.140   0.144   0.150   0.152   0.173   0.219   0.250   0.265   0.268   0.265   0.264
   17 180   249     453     161       4     107     385       0       0       0     210    0.00     0.0     0.0    0.00    0.00   0.235   0.222   0.131   0.135   0.140   0.144   0.150   0.152   0.172   0.218   0.249   0.265   0.268   0.265   0.264
   17 181   250     449     158       4     107     385       0       0       0     210    0.00     0.0     0.0    0.00    0.00   0.187   0.212   0.138   0.135   0.140   0.144   0.149   0.152   0.171   0.217   0.249   0.264   0.268   0.265   0.264
   17 182   251     446     154       4     107     385       0       0       0     210    0.00     0.0     0.0    0.00    0.00   0.158   0.199   0.141   0.135   0.140   0.144   0.149   0.151   0.170   0.215   0.248   0.264   0.268   0.265   0.264
   17 183   252     443     152       4     107     385       0       0       0     210    0.00     0.0     0.0    0.00    0.00   0.143   0.189   0.141   0.135   0.139   0.144   0.149   0.151   0.169   0.214   0.247   0.264   0.268   0.265   0.264
   17 184   253     441     149       4     107     385       0       0       0     210    0.00     0.0     0.0    0.00    0.00   0.117   0.182   0.142   0.135   0.139   0.144   0.149   0.151   0.169   0.213   0.247   0.263   0.268   0.265   0.264
   17 185   254     437     146       4     107     385       0       0       0     210    0.00     0.0     0.0    0.00    0.00   0.091   0.170   0.138   0.135   0.139   0.143   0.149   0.150   0.167   0.211   0.246   0.263   0.267   0.265   0.264
   17 186   255     432     141       4     107     385       0       0       0     210    0.00     0.0     0.0    0.00    0.00   0.074   0.155   0.132   0.135   0.139   0.143   0.148   0.150   0.165   0.207   0.245   0.262   0.267   0.265   0.264
   17 187   256     427     135       4     107     385       0       0       0     210    0.00     0.0     0.0    0.00    0.00   0.077   0.135   0.124   0.134   0.138   0.142   0.148   0.148   0.160   0.200   0.242   0.262   0.267   0.265   0.264
   17 188   257     422     131       4     107     386       0       0       0     210    0.00     0.0     0.0    0.00    0.00   0.086   0.124   0.123   0.133   0.138   0.142   0.147   0.148   0.156   0.191   0.238   0.262   0.267   0.265   0.264
   17 189   258     419     128       4     107     386       0       0       0     210    0.00     0.0     0.0    0.00    0.00   0.072   0.121   0.123   0.133   0.138   0.142   0.147   0.147   0.154   0.185   0.235   0.262   0.267   0.265   0.264
   17 190   259     441     149       4     107     411       0       0       0     210    0.00     0.0     0.0    0.06    0.00   0.321   0.240   0.123   0.133   0.138   0.142   0.147   0.147   0.152   0.177   0.233   0.262   0.267   0.265   0.264
   17 191   260     444     152       4     107     418       0       0       0     210    0.00     0.0     0.0    0.00    0.00   0.273   0.261   0.197   0.133   0.138   0.142   0.147   0.147   0.151   0.176   0.232   0.261   0.267   0.265   0.264
   17 192   261     444     152       4     107     421       0       0       0     210    0.00     0.0     0.0    0.00    0.00   0.252   0.254   0.237   0.135   0.138   0.142   0.147   0.147   0.151   0.175   0.232   0.260   0.267   0.265   0.264
   17 193   262     444     153       4     107     425       0       0       0     210    0.00     0.0     0.0    0.00    0.00   0.247   0.252   0.250   0.140   0.138   0.142   0.147   0.147   0.151   0.175   0.231   0.260   0.266   0.265   0.264
   17 194   263     440     148       4     107     425       0       0       0     210    0.00     0.0     0.0    0.00    0.00   0.184   0.241   0.239   0.147   0.138   0.142   0.147   0.147   0.151   0.174   0.231   0.260   0.266   0.265   0.264
   17 195   264     445     154       4     107     434       0       0       0     210    0.00     0.0     0.0    0.00    0.00   0.275   0.246   0.245   0.152   0.138   0.142   0.147   0.147   0.151   0.173   0.231   0.259   0.266   0.265   0.264
   17 196   265     442     150       4     107     434       0       0       0     210    0.00     0.0     0.0    0.00    0.00   0.215   0.240   0.242   0.160   0.139   0.142   0.147   0.147   0.151   0.173   0.230   0.259   0.266   0.265   0.264
   17 197   266     438     147       4     107     434       0       0       0     210    0.00     0.0     0.0    0.00    0.00   0.166   0.234   0.233   0.161   0.139   0.142   0.147   0.147   0.151   0.173   0.230   0.259   0.266   0.265   0.264
   17 198   267     434     143       4     107     434       0       0       0     210    0.00     0.0     0.0    0.00    0.00   0.130   0.221   0.220   0.161   0.139   0.142   0.147   0.147   0.151   0.172   0.230   0.258   0.266   0.265   0.264
   17 199   268     429     137       4     107     434       0       0       0     210    0.00     0.0     0.0    0.00    0.00   0.078   0.205   0.206   0.159   0.139   0.142   0.147   0.147   0.150   0.170   0.229   0.258   0.265   0.265   0.264
   17 200   269     425     133       4     107     434       0       0       0     210    0.00     0.0     0.0    0.00    0.00   0.077   0.187   0.190   0.156   0.139   0.142   0.147   0.147   0.150   0.168   0.228   0.257   0.265   0.265   0.264
   17 201   270     422     130       4     107     434       0       0       0     210    0.00     0.0     0.0    0.00    0.00   0.081   0.172   0.173   0.152   0.139   0.142   0.147   0.147   0.150   0.167   0.228   0.256   0.265   0.265   0.264
   17 202   271     420     128       4     107     434       0       0       0     210    0.00     0.0     0.0    0.00    0.00   0.074   0.165   0.164   0.151   0.139   0.142   0.147   0.147   0.150   0.166   0.227   0.256   0.265   0.265   0.264
   17 203   272     417     126       4     107     435       0       0       0     210    0.00     0.0     0.0    0.00    0.00   0.083   0.156   0.150   0.148   0.139   0.142   0.147   0.147   0.149   0.164   0.226   0.255   0.265   0.265   0.264
   17 204   273     416     124       4     107     436       0       0       0     210    0.00     0.0     0.0    0.00    0.00   0.085   0.149   0.142   0.145   0.139   0.142   0.147   0.147   0.149   0.163   0.226   0.255   0.264   0.265   0.264
   17 205   274     418     127       4     107     440       0       0       0     210    0.00     0.0     0.0    0.00    0.00   0.157   0.146   0.139   0.145   0.139   0.142   0.147   0.147   0.149   0.163   0.225   0.255   0.264   0.265   0.264
   17 206   275     439     147       4     107     462       0       0       0     210    0.00     0.0     0.0    0.19    0.00   0.285   0.265   0.178   0.144   0.139   0.142   0.147   0.147   0.149   0.163   0.225   0.254   0.264   0.265   0.264
   17 207   276     462     171       8     107     490       0       0       0     210    0.00     0.0     0.0    3.62    0.00   0.303   0.314   0.332   0.245   0.139   0.142   0.147   0.147   0.149   0.163   0.225   0.254   0.264   0.265   0.264
   17 208   277     466     175       8     107     496       0       0       0     210    0.00     0.0     0.0    0.00    0.00   0.289   0.305   0.321   0.284   0.165   0.142   0.147   0.147   0.149   0.163   0.225   0.254   0.264   0.265   0.264
   17 209   278     463     172       8     107     496       0       0       0     210    0.00     0.0     0.0    0.00    0.00   0.199   0.275   0.286   0.269   0.239   0.142   0.147   0.147   0.149   0.163   0.225   0.254   0.264   0.265   0.264
   17 210   279     459     168       8     107     496       0       0       0     210    0.00     0.0     0.0    0.00    0.00   0.140   0.256   0.268   0.263   0.264   0.145   0.147   0.147   0.149   0.164   0.225   0.254   0.263   0.265   0.264
   17 211   280     458     166       8     107     498       0       0       0     210    0.00     0.0     0.0    0.00    0.00   0.134   0.242   0.263   0.263   0.263   0.148   0.147   0.147   0.149   0.164   0.225   0.253   0.263   0.265   0.264
   17 212   281     455     164       8     107     498       0       0       0     210    0.00     0.0     0.0    0.00    0.00   0.110   0.235   0.253   0.262   0.261   0.151   0.147   0.147   0.149   0.164   0.225   0.253   0.263   0.265   0.264
   17 213   282     461     170       8     107     507       0       0       0     210    0.00     0.0     0.0    0.00    0.00   0.233   0.240   0.250   0.260   0.257   0.154   0.147   0.147   0.149   0.164   0.225   0.253   0.263   0.265   0.264
   17 214   283     457     165       8     107     507       0       0       0     210    0.00     0.0     0.0    0.00    0.00   0.144   0.241   0.249   0.259   0.255   0.157   0.147   0.147   0.149   0.164   0.225   0.253   0.263   0.265   0.264
   17 215   284     461     169       8     107     514       0       0       0     210    0.00     0.0     0.0    0.00    0.00   0.204   0.245   0.253   0.259   0.253   0.160   0.148   0.147   0.149   0.164   0.225   0.253   0.263   0.264   0.264
   17 216   285     458     166       8     107     514       0       0       0     210    0.00     0.0     0.0    0.00    0.00   0.150   0.242   0.251   0.259   0.251   0.162   0.148   0.147   0.149   0.165   0.225   0.253   0.263   0.264   0.264
   17 217   286     455     164       8     107     514       0       0       0     210    0.00     0.0     0.0    0.00    0.00   0.115   0.238   0.249   0.258   0.249   0.165   0.148   0.147   0.149   0.165   0.225   0.252   0.262   0.264   0.264
   17 218   287     454     162       8     107     514       0       0       0     210    0.00     0.0     0.0    0.00    0.00   0.099   0.233   0.247   0.257   0.247   0.167   0.148   0.147   0.149   0.165   0.225   0.252   0.262   0.264   0.264
   17 219   288     453     161       8     107     514       0       0       0     210    0.00     0.0     0.0    0.00    0.00   0.088   0.229   0.245   0.256   0.246   0.169   0.149   0.147   0.149   0.166   0.225   0.252   0.262   0.264   0.264

*DSSAT Cropping System Model Ver. 4.8.5.000 -release  MAR 01, 2026 09:34:40

*RUN   2        : 2                         WHAPS048 TUDU1701    2
 MODEL          : WHAPS048 - Wheat
 EXPERIMENT     : TUDU1701 WH
 DATA PATH      :
 TREATMENT  2   : 2                         WHAPS048
  
!                                                                                                                                   Soil water content (mm3/mm3) by soil depth (cm):
!                                                                                                                                   0-5    5-15   15-20   20-30   30-40   40-50   50-60   60-70   70-90  90-110 110-130 130-150 150-170 170-190 190-210
@YEAR DOY   DAS    SWTD    SWXD    ROFC    DRNC    PREC    IR#C    IRRC   LATFC    DTWT    MWTD    TDFD    TDFC    ROFD    ROSD    SW1D    SW2D    SW3D    SW4D    SW5D    SW6D    SW7D    SW8D    SW9D   SW10D   SW11D   SW12D   SW13D   SW14D   SW15D
   16 297     0     532     241       0       0       0       0       0       0     210    0.00     0.0     0.0    0.00    0.00   0.223   0.234   0.239   0.249   0.254   0.258   0.263   0.263   0.262   0.260   0.257   0.255   0.253   0.250   0.249
   16 298     1     534     242       0       0       3       0       0       0     210    0.00     0.0     0.0    0.00    0.00   0.245   0.243   0.239   0.249   0.254   0.258   0.263   0.263   0.262   0.260   0.257   0.255   0.253   0.250   0.249
   16 299     2     535     244       0       0       5       0       0       0     210    0.00     0.0     0.0    0.00    0.00   0.247   0.249   0.248   0.249   0.254   0.258   0.263   0.263   0.262   0.260   0.257   0.255   0.253   0.250   0.249
   16 300     3     534     243       0       0       5       0       0       0     210    0.00     0.0     0.0    0.00    0.00   0.223   0.248   0.251   0.251   0.254   0.258   0.263   0.263   0.262   0.260   0.257   0.255   0.253   0.250   0.249
   16 301     4     532     241       0       0       5       0       0       0     210    0.00     0.0     0.0    0.00    0.00   0.193   0.248   0.249   0.251   0.254   0.258   0.263   0.263   0.262   0.260   0.257   0.255   0.253   0.250   0.249
   16 302     5     531     240       0       0       5       0       0       0     210    0.00     0.0     0.0    0.00    0.00   0.162   0.248   0.248   0.252   0.254   0.258   0.263   0.263   0.262   0.260   0.257   0.255   0.253   0.250   0.249
   16 303     6     530     239       0       0       5       0       0       0     210    0.00     0.0     0.0    0.00    0.00   0.148   0.247   0.248   0.253   0.255   0.258   0.263   0.263   0.262   0.260   0.257   0.255   0.253   0.250   0.249
   16 304     7     529     238       0       0       5       0       0       0     210    0.00     0.0     0.0    0.00    0.00   0.120   0.247   0.247   0.253   0.255   0.258   0.263   0.263   0.262   0.260   0.257   0.255   0.253   0.250   0.249
   16 305     8     528     236       0       0       5       0       0       0     210    0.00     0.0     0.0    0.00    0.00   0.087   0.246   0.247   0.253   0.255   0.258   0.263   0.263   0.262   0.260   0.257   0.255   0.253   0.250   0.249
   16 306     9     527     236       0       0       5       0       0       0     210    0.00     0.0     0.0    0.00    0.00   0.072   0.246   0.247   0.253   0.255   0.258   0.263   0.263   0.262   0.260   0.257   0.255   0.253   0.250   0.249
   16 307    10     528     237       0       0       6       0       0       0     210    0.00     0.0     0.0    0.00    0.00   0.091   0.245   0.247   0.254   0.255   0.258   0.263   0.263   0.262   0.260   0.257   0.255   0.253   0.250   0.249
   16 308    11     527     236       0       0       6       0       0       0     210    0.00     0.0     0.0    0.00    0.00   0.072   0.245   0.247   0.254   0.256   0.258   0.263   0.263   0.262   0.260   0.257   0.255   0.253   0.250   0.249
   16 309    12     527     236       0       0       6       0       0       0     210    0.00     0.0     0.0    0.00    0.00   0.076   0.244   0.247   0.254   0.256   0.258   0.263   0.263   0.262   0.260   0.257   0.255   0.253   0.250   0.249
   16 310    13     537     246       0       0      16       0       0       0     210    0.00     0.0     0.0    0.00    0.00   0.259   0.251   0.254   0.255   0.256   0.259   0.263   0.263   0.262   0.260   0.257   0.255   0.253   0.250   0.249
   16 311    14     545     254       0       0      24       0       0       0     210    0.00     0.0     0.0    0.00    0.00   0.310   0.276   0.282   0.267   0.261   0.259   0.263   0.263   0.262   0.260   0.257   0.255   0.253   0.250   0.249
   16 312    15     545     253       0       0      25       0       0       0     210    0.00     0.0     0.0    0.00    0.00   0.270   0.269   0.290   0.273   0.270   0.262   0.263   0.263   0.262   0.260   0.257   0.255   0.253   0.250   0.249
   16 313    16     544     253       0       0      25       0       0       0     210    0.00     0.0     0.0    0.00    0.00   0.247   0.262   0.287   0.276   0.275   0.271   0.263   0.263   0.262   0.260   0.257   0.255   0.253   0.250   0.249
   16 314    17     547     256       0       0      28       0       0       0     210    0.00     0.0     0.0    0.00    0.00   0.263   0.262   0.286   0.278   0.279   0.276   0.270   0.263   0.262   0.260   0.257   0.255   0.253   0.250   0.249
   16 315    18     553     262       0       0      35       0       0       0     210    0.00     0.0     0.0    0.00    0.00   0.306   0.275   0.298   0.281   0.283   0.281   0.278   0.266   0.262   0.260   0.257   0.255   0.253   0.250   0.249
   16 316    19     559     267       0       0      41       0       0       0     210    0.00     0.0     0.0    0.00    0.00   0.311   0.286   0.315   0.288   0.288   0.286   0.284   0.275   0.262   0.260   0.257   0.255   0.253   0.250   0.249
   16 317    20     558     267       0       0      41       0       0       0     210    0.00     0.0     0.0    0.00    0.00   0.266   0.266   0.284   0.275   0.277   0.279   0.280   0.275   0.275   0.273   0.270   0.260   0.253   0.250   0.249
   16 318    21     558     267       0       0      41       0       0       0     210    0.00     0.0     0.0    0.00    0.00   0.245   0.256   0.268   0.268   0.272   0.275   0.278   0.276   0.275   0.273   0.270   0.268   0.266   0.250   0.249
   16 319    22     558     266       0       0      41       0       0       0     210    0.00     0.0     0.0    0.00    0.00   0.231   0.251   0.260   0.265   0.270   0.273   0.278   0.276   0.275   0.273   0.270   0.268   0.266   0.259   0.249
   16 320    23     562     271       0       0      46       0       0       0     210    0.00     0.0     0.0    0.00    0.00   0.282   0.260   0.270   0.268   0.271   0.274   0.279   0.279   0.275   0.273   0.270   0.268   0.266   0.259   0.249
[...]
   17 140   209     553     261       2     113     316       0       0       0     210    0.00     0.0     0.0    0.00    0.00   0.093   0.230   0.249   0.261   0.267   0.271   0.276   0.277   0.274   0.274   0.272   0.270   0.268   0.265   0.264
   17 141   210     551     260       2     113     316       0       0       0     210    0.00     0.0     0.0    0.00    0.00   0.084   0.226   0.246   0.260   0.267   0.271   0.276   0.276   0.274   0.274   0.272   0.270   0.268   0.265   0.264
   17 142   211     550     259       2     113     316       0       0       0     210    0.00     0.0     0.0    0.00    0.00   0.081   0.222   0.244   0.259   0.266   0.270   0.275   0.276   0.274   0.274   0.272   0.270   0.268   0.265   0.264
   17 143   212     549     258       2     113     316       0       0       0     210    0.00     0.0     0.0    0.00    0.00   0.080   0.218   0.242   0.258   0.265   0.270   0.275   0.275   0.273   0.274   0.272   0.270   0.268   0.265   0.264
   17 144   213     548     257       2     113     316       0       0       0     210    0.00     0.0     0.0    0.00    0.00   0.079   0.215   0.239   0.256   0.264   0.269   0.274   0.274   0.272   0.274   0.272   0.270   0.268   0.265   0.264
   17 145   214     547     256       2     113     316       0       0       0     210    0.00     0.0     0.0    0.00    0.00   0.079   0.212   0.237   0.255   0.264   0.268   0.273   0.273   0.272   0.274   0.272   0.270   0.268   0.265   0.264
   17 146   215     546     255       2     113     316       0       0       0     210    0.00     0.0     0.0    0.00    0.00   0.078   0.209   0.236   0.254   0.263   0.268   0.273   0.273   0.272   0.274   0.272   0.270   0.268   0.265   0.264
   17 147   216     545     254       2     113     316       0       0       0     210    0.00     0.0     0.0    0.00    0.00   0.078   0.206   0.233   0.252   0.261   0.266   0.272   0.272   0.271   0.274   0.272   0.270   0.268   0.265   0.264
   17 148   217     544     252       2     113     316       0       0       0     210    0.00     0.0     0.0    0.00    0.00   0.077   0.202   0.230   0.249   0.260   0.265   0.270   0.271   0.270   0.274   0.272   0.270   0.268   0.265   0.264
   17 149   218     542     250       2     113     316       0       0       0     210    0.00     0.0     0.0    0.00    0.00   0.077   0.199   0.227   0.247   0.258   0.264   0.269   0.269   0.269   0.273   0.272   0.270   0.268   0.265   0.264
   17 150   219     546     255       2     113     322       0       0       0     210    0.00     0.0     0.0    0.00    0.00   0.202   0.195   0.225   0.245   0.256   0.262   0.267   0.268   0.268   0.272   0.272   0.270   0.268   0.265   0.264
   17 151   220     544     252       2     113     322       0       0       0     210    0.00     0.0     0.0    0.00    0.00   0.172   0.196   0.223   0.243   0.254   0.261   0.266   0.267   0.267   0.271   0.272   0.270   0.268   0.265   0.264
   17 152   221     542     250       2     113     322       0       0       0     210    0.00     0.0     0.0    0.00    0.00   0.150   0.195   0.221   0.241   0.253   0.260   0.265   0.266   0.266   0.271   0.272   0.270   0.268   0.265   0.264
   17 153   222     539     248       2     113     322       0       0       0     210    0.00     0.0     0.0    0.00    0.00   0.132   0.193   0.219   0.239   0.252   0.258   0.264   0.265   0.265   0.270   0.272   0.270   0.268   0.265   0.264
   17 154   223     544     253       2     113     331       0       0       0     210    0.00     0.0     0.0    0.00    0.00   0.227   0.208   0.216   0.237   0.250   0.257   0.263   0.263   0.264   0.269   0.271   0.270   0.268   0.265   0.264
   17 155   224     541     249       2     113     332       0       0       0     210    0.00     0.0     0.0    0.00    0.00   0.191   0.207   0.215   0.235   0.248   0.255   0.261   0.262   0.263   0.268   0.271   0.270   0.268   0.265   0.264
   17 156   225     541     250       2     113     334       0       0       0     210    0.00     0.0     0.0    0.00    0.00   0.213   0.206   0.216   0.234   0.247   0.254   0.261   0.261   0.263   0.267   0.271   0.270   0.268   0.265   0.264
   17 157   226     546     255       2     113     341       0       0       0     210    0.00     0.0     0.0    0.00    0.00   0.279   0.232   0.215   0.233   0.246   0.253   0.260   0.261   0.262   0.267   0.271   0.270   0.268   0.265   0.264
   17 158   227     544     252       2     113     341       0       0       0     210    0.00     0.0     0.0    0.00    0.00   0.214   0.242   0.219   0.233   0.245   0.253   0.259   0.260   0.262   0.266   0.271   0.270   0.268   0.265   0.264
   17 159   228     540     249       2     113     341       0       0       0     210    0.00     0.0     0.0    0.00    0.00   0.156   0.237   0.223   0.232   0.244   0.252   0.259   0.260   0.261   0.266   0.270   0.270   0.268   0.265   0.264
   17 160   229     542     250       2     113     347       0       0       0     210    0.00     0.0     0.0    0.00    0.00   0.215   0.239   0.222   0.231   0.242   0.250   0.257   0.258   0.260   0.264   0.270   0.270   0.268   0.265   0.264
   17 161   230     536     244       2     113     347       0       0       0     210    0.00     0.0     0.0    0.00    0.00   0.147   0.233   0.222   0.229   0.240   0.248   0.255   0.256   0.258   0.263   0.269   0.270   0.268   0.265   0.264
   17 162   231     532     240       2     113     347       0       0       0     210    0.00     0.0     0.0    0.00    0.00   0.107   0.225   0.221   0.228   0.238   0.246   0.253   0.255   0.257   0.262   0.268   0.270   0.268   0.265   0.264
   17 163   232     527     235       2     113     347       0       0       0     210    0.00     0.0     0.0    0.00    0.00   0.080   0.215   0.217   0.224   0.235   0.243   0.250   0.252   0.254   0.260   0.268   0.270   0.268   0.265   0.264
   17 164   233     524     232       2     113     347       0       0       0     210    0.00     0.0     0.0    0.00    0.00   0.079   0.208   0.213   0.222   0.232   0.241   0.248   0.250   0.253   0.258   0.268   0.270   0.268   0.265   0.264
   17 165   234     521     230       2     113     347       0       0       0     210    0.00     0.0     0.0    0.00    0.00   0.078   0.202   0.210   0.220   0.230   0.238   0.246   0.248   0.251   0.257   0.268   0.270   0.268   0.265   0.264
   17 166   235     522     231       2     113     351       0       0       0     210    0.00     0.0     0.0    0.00    0.00   0.153   0.195   0.206   0.217   0.227   0.236   0.243   0.246   0.249   0.255   0.268   0.270   0.268   0.265   0.264
   17 167   236     516     224       2     113     351       0       0       0     210    0.00     0.0     0.0    0.00    0.00   0.099   0.190   0.201   0.213   0.224   0.233   0.241   0.243   0.247   0.253   0.266   0.269   0.268   0.265   0.264
   17 168   237     512     221       2     113     351       0       0       0     210    0.00     0.0     0.0    0.00    0.00   0.075   0.185   0.198   0.211   0.222   0.231   0.239   0.241   0.245   0.252   0.266   0.269   0.268   0.265   0.264
   17 169   238     511     219       2     113     351       0       0       0     210    0.00     0.0     0.0    0.00    0.00   0.075   0.182   0.196   0.210   0.221   0.230   0.238   0.240   0.244   0.251   0.265   0.269   0.268   0.265   0.264
   17 170   239     508     217       2     113     351       0       0       0     210    0.00     0.0     0.0    0.00    0.00   0.075   0.177   0.193   0.207   0.218   0.227   0.235   0.238   0.242   0.250   0.264   0.269   0.268   0.265   0.264
   17 171   240     505     213       2     113     351       0       0       0     210    0.00     0.0     0.0    0.00    0.00   0.080   0.171   0.188   0.203   0.215   0.224   0.232   0.235   0.240   0.247   0.263   0.269   0.268   0.265   0.264
   17 172   241     501     209       2     113     351       0       0       0     210    0.00     0.0     0.0    0.00    0.00   0.074   0.166   0.183   0.200   0.212   0.221   0.230   0.232   0.237   0.245   0.262   0.269   0.268   0.265   0.264
   17 173   242     503     212       2     113     356       0       0       0     210    0.00     0.0     0.0    0.00    0.00   0.172   0.162   0.180   0.197   0.209   0.219   0.228   0.231   0.236   0.244   0.261   0.269   0.268   0.265   0.264
   17 174   243     498     207       2     113     356       0       0       0     210    0.00     0.0     0.0    0.00    0.00   0.113   0.160   0.177   0.194   0.207   0.217   0.225   0.229   0.234   0.243   0.260   0.269   0.268   0.265   0.264
   17 175   244     495     203       2     113     356       0       0       0     210    0.00     0.0     0.0    0.00    0.00   0.085   0.157   0.175   0.192   0.205   0.215   0.224   0.227   0.233   0.242   0.259   0.268   0.268   0.265   0.264
   17 176   245     493     202       2     113     357       0       0       0     210    0.00     0.0     0.0    0.00    0.00   0.093   0.154   0.172   0.190   0.203   0.214   0.222   0.226   0.231   0.241   0.259   0.268   0.268   0.265   0.264
   17 177   246     495     204       2     113     362       0       0       0     210    0.00     0.0     0.0    0.00    0.00   0.159   0.152   0.171   0.189   0.202   0.213   0.221   0.225   0.231   0.240   0.258   0.268   0.268   0.265   0.264
   17 178   247     498     207       2     113     370       0       0       0     210    0.00     0.0     0.0    0.00    0.00   0.218   0.169   0.168   0.187   0.200   0.211   0.219   0.223   0.229   0.239   0.257   0.267   0.268   0.265   0.264
   17 179   248     506     215       2     113     382       0       0       0     210    0.00     0.0     0.0    0.00    0.00   0.254   0.242   0.168   0.185   0.199   0.210   0.219   0.222   0.228   0.238   0.257   0.267   0.268   0.265   0.264
   17 180   249     505     214       2     113     385       0       0       0     210    0.00     0.0     0.0    0.00    0.00   0.221   0.245   0.189   0.185   0.198   0.209   0.218   0.221   0.227   0.238   0.257   0.267   0.268   0.265   0.264
   17 181   250     501     209       2     113     385       0       0       0     210    0.00     0.0     0.0    0.00    0.00   0.155   0.238   0.195   0.185   0.197   0.208   0.217   0.221   0.227   0.237   0.256   0.266   0.268   0.265   0.264
   17 182   251     497     206       2     113     385       0       0       0     210    0.00     0.0     0.0    0.00    0.00   0.115   0.229   0.199   0.185   0.196   0.207   0.216   0.220   0.226   0.237   0.256   0.266   0.268   0.265   0.264
   17 183   252     495     204       2     113     385       0       0       0     210    0.00     0.0     0.0    0.00    0.00   0.096   0.221   0.200   0.185   0.196   0.206   0.215   0.219   0.226   0.236   0.256   0.266   0.268   0.265   0.264
   17 184   253     493     202       2     113     385       0       0       0     210    0.00     0.0     0.0    0.00    0.00   0.080   0.215   0.200   0.186   0.195   0.206   0.215   0.219   0.225   0.236   0.255   0.266   0.268   0.265   0.264
   17 185   254     492     201       2     113     385       0       0       0     210    0.00     0.0     0.0    0.00    0.00   0.079   0.209   0.199   0.186   0.194   0.205   0.214   0.218   0.225   0.236   0.255   0.266   0.267   0.265   0.264
   17 186   255     490     199       2     113     385       0       0       0     210    0.00     0.0     0.0    0.00    0.00   0.078   0.204   0.197   0.185   0.193   0.204   0.213   0.217   0.224   0.235   0.255   0.265   0.267   0.265   0.264
   17 187   256     488     196       2     113     385       0       0       0     210    0.00     0.0     0.0    0.00    0.00   0.081   0.197   0.193   0.183   0.191   0.202   0.211   0.216   0.222   0.234   0.254   0.265   0.267   0.265   0.264
   17 188   257     486     194       2     113     386       0       0       0     210    0.00     0.0     0.0    0.00    0.00   0.090   0.192   0.190   0.182   0.189   0.200   0.209   0.214   0.221   0.233   0.253   0.264   0.267   0.265   0.264
   17 189   258     484     192       2     113     386       0       0       0     210    0.00     0.0     0.0    0.00    0.00   0.076   0.188   0.188   0.181   0.188   0.199   0.208   0.213   0.220   0.232   0.253   0.264   0.267   0.265   0.264
   17 190   259     506     215       3     113     411       0       0       0     210    0.00     0.0     0.0    0.27    0.00   0.321   0.273   0.247   0.180   0.187   0.197   0.207   0.212   0.219   0.231   0.252   0.263   0.267   0.265   0.264
   17 191   260     509     218       3     113     418       0       0       0     210    0.00     0.0     0.0    0.00    0.00   0.261   0.292   0.290   0.205   0.186   0.197   0.207   0.211   0.218   0.231   0.252   0.263   0.267   0.265   0.264
   17 192   261     509     217       3     113     421       0       0       0     210    0.00     0.0     0.0    0.00    0.00   0.226   0.279   0.298   0.233   0.186   0.196   0.206   0.210   0.218   0.230   0.252   0.263   0.267   0.265   0.264
   17 193   262     509     218       3     113     425       0       0       0     210    0.00     0.0     0.0    0.00    0.00   0.218   0.267   0.293   0.256   0.188   0.195   0.205   0.210   0.217   0.230   0.251   0.262   0.267   0.265   0.264
   17 194   263     504     213       3     113     425       0       0       0     210    0.00     0.0     0.0    0.00    0.00   0.140   0.254   0.270   0.259   0.205   0.195   0.205   0.209   0.217   0.230   0.251   0.262   0.267   0.265   0.264
   17 195   264     510     218       3     113     434       0       0       0     210    0.00     0.0     0.0    0.00    0.00   0.242   0.252   0.273   0.262   0.211   0.194   0.204   0.209   0.216   0.229   0.251   0.262   0.267   0.265   0.264
   17 196   265     506     214       3     113     434       0       0       0     210    0.00     0.0     0.0    0.00    0.00   0.179   0.248   0.261   0.259   0.222   0.195   0.203   0.208   0.216   0.229   0.250   0.261   0.266   0.265   0.264
   17 197   266     503     211       3     113     434       0       0       0     210    0.00     0.0     0.0    0.00    0.00   0.135   0.243   0.255   0.259   0.223   0.195   0.203   0.208   0.215   0.229   0.250   0.261   0.266   0.265   0.264
   17 198   267     500     208       3     113     434       0       0       0     210    0.00     0.0     0.0    0.00    0.00   0.107   0.237   0.251   0.255   0.223   0.195   0.202   0.207   0.215   0.228   0.250   0.261   0.266   0.265   0.264
   17 199   268     497     206       3     113     434       0       0       0     210    0.00     0.0     0.0    0.00    0.00   0.092   0.231   0.246   0.252   0.223   0.195   0.201   0.206   0.214   0.228   0.249   0.261   0.266   0.265   0.264
   17 200   269     494     203       3     113     434       0       0       0     210    0.00     0.0     0.0    0.00    0.00   0.082   0.225   0.241   0.249   0.222   0.195   0.200   0.205   0.213   0.227   0.249   0.260   0.266   0.265   0.264
   17 201   270     493     201       3     113     434       0       0       0     210    0.00     0.0     0.0    0.00    0.00   0.086   0.220   0.237   0.246   0.222   0.195   0.199   0.204   0.212   0.226   0.248   0.260   0.266   0.265   0.264
   17 202   271     491     200       3     113     434       0       0       0     210    0.00     0.0     0.0    0.00    0.00   0.079   0.216   0.234   0.243   0.222   0.195   0.199   0.203   0.211   0.226   0.248   0.260   0.266   0.265   0.264
   17 203   272     490     199       3     113     435       0       0       0     210    0.00     0.0     0.0    0.00    0.00   0.089   0.212   0.231   0.241   0.221   0.195   0.198   0.203   0.211   0.225   0.248   0.259   0.265   0.265   0.264
   17 204   273     489     198       3     113     436       0       0       0     210    0.00     0.0     0.0    0.00    0.00   0.090   0.209   0.228   0.239   0.221   0.196   0.198   0.202   0.210   0.225   0.247   0.259   0.265   0.265   0.264
   17 205   274     492     201       3     113     440       0       0       0     210    0.00     0.0     0.0    0.00    0.00   0.162   0.206   0.226   0.237   0.220   0.196   0.198   0.202   0.210   0.225   0.247   0.259   0.265   0.265   0.264
   17 206   275     512     220       3     113     462       0       0       0     210    0.00     0.0     0.0    0.47    0.00   0.278   0.295   0.287   0.254   0.220   0.197   0.198   0.202   0.210   0.225   0.247   0.259   0.265   0.265   0.264
   17 207   276     535     243       7     113     490       0       0       0     210    0.00     0.0     0.0    3.91    0.00   0.299   0.320   0.322   0.329   0.296   0.225   0.198   0.202   0.210   0.225   0.247   0.259   0.265   0.265   0.264
   17 208   277     539     247       7     113     496       0       0       0     210    0.00     0.0     0.0    0.00    0.00   0.279   0.308   0.324   0.326   0.311   0.273   0.199   0.202   0.210   0.225   0.247   0.259   0.265   0.265   0.264
   17 209   278     535     243       7     113     496       0       0       0     210    0.00     0.0     0.0    0.00    0.00   0.179   0.277   0.288   0.294   0.289   0.269   0.279   0.238   0.210   0.225   0.247   0.259   0.265   0.265   0.264
   17 210   279     531     240       7     113     496       0       0       0     210    0.00     0.0     0.0    0.00    0.00   0.119   0.256   0.270   0.278   0.278   0.271   0.275   0.278   0.217   0.225   0.247   0.258   0.264   0.265   0.264
   17 211   280     531     240       7     113     498       0       0       0     210    0.00     0.0     0.0    0.00    0.00   0.140   0.244   0.266   0.273   0.278   0.276   0.278   0.276   0.219   0.225   0.247   0.258   0.264   0.265   0.264
   17 212   281     529     238       7     113     498       0       0       0     210    0.00     0.0     0.0    0.00    0.00   0.120   0.239   0.257   0.267   0.272   0.273   0.278   0.274   0.228   0.225   0.246   0.258   0.264   0.265   0.264
   17 213   282     535     244       7     113     507       0       0       0     210    0.00     0.0     0.0    0.00    0.00   0.229   0.244   0.254   0.266   0.271   0.274   0.278   0.275   0.228   0.226   0.246   0.258   0.264   0.265   0.264
   17 214   283     531     240       7     113     507       0       0       0     210    0.00     0.0     0.0    0.00    0.00   0.146   0.244   0.253   0.264   0.269   0.273   0.278   0.275   0.231   0.226   0.246   0.258   0.264   0.265   0.264
   17 215   284     535     243       7     113     514       0       0       0     210    0.00     0.0     0.0    0.00    0.00   0.204   0.246   0.256   0.264   0.269   0.273   0.278   0.275   0.232   0.226   0.246   0.258   0.264   0.264   0.264
   17 216   285     532     240       7     113     514       0       0       0     210    0.00     0.0     0.0    0.00    0.00   0.154   0.243   0.253   0.264   0.269   0.273   0.278   0.275   0.233   0.227   0.246   0.258   0.264   0.264   0.264
   17 217   286     530     238       7     113     514       0       0       0     210    0.00     0.0     0.0    0.00    0.00   0.124   0.239   0.252   0.264   0.269   0.273   0.278   0.273   0.234   0.227   0.246   0.258   0.264   0.264   0.264
   17 218   287     528     237       7     113     514       0       0       0     210    0.00     0.0     0.0    0.00    0.00   0.109   0.234   0.250   0.264   0.269   0.273   0.278   0.272   0.234   0.227   0.246   0.258   0.264   0.264   0.264
   17 219   288     527     236       7     113     514       0       0       0     210    0.00     0.0     0.0    0.00    0.00   0.099   0.230   0.248   0.263   0.269   0.273   0.277   0.271   0.235   0.227   0.246   0.258   0.263   0.264   0.264
