*SOIL INORGANIC N BALANCE

*DSSAT Cropping System Model Ver. 4.8.5.000 -release  MAR 01, 2026 09:34:40

*RUN   1        : 1                         WHAPS048 TUDU1701    1
 MODEL          : WHAPS048 - Wheat
 EXPERIMENT     : TUDU1701 WH
 DATA PATH      :
 TREATMENT  1   : 1                         WHAPS048
  


!SOIL INORGANIC N BALANCE                         Initial               Final
!                                                Year/Doy            Year/Doy
!                                                  16/298              17/219
!                                               (kg[N]/ha)          (kg[N]/ha)
! Soil N state variables:
!   Soil NO3                                        93.54               69.58
!   Soil NH4                                        10.26                3.74
!   Soil Urea                                        0.00                0.00
!   Soil N gases                                     0.00                0.28
!   Unreleased fert N                                                    0.00

! N additions:
!   Fertilizer N                                   120.00
!   Mineralized N                                   62.42

! N subtractions:
!   N immobilized                                                        2.54
!   N leached                                                           23.54
!   N loss to tile drainage                                              0.00
!   N Uptake From Soil                                                 185.42
!   NH3 loss                                                             0.00
!   N2O loss                                                             0.16
!   N2 loss                                                              0.26
!   NO loss                                                              0.69

!   Total N balance                                286.22              286.22
!   Balance                                                            -0.000

!===============================================================================

*DSSAT Cropping System Model Ver. 4.8.5.000 -release  MAR 01, 2026 09:34:40

*RUN   2        : 2                         WHAPS048 TUDU1701    2
 MODEL          : WHAPS048 - Wheat
 EXPERIMENT     : TUDU1701 WH
 DATA PATH      :
 TREATMENT  2   : 2                         WHAPS048
  


!SOIL INORGANIC N BALANCE                         Initial               Final
!                                                Year/Doy            Year/Doy
!                                                  16/298              17/219
!                                               (kg[N]/ha)          (kg[N]/ha)
! Soil N state variables:
!   Soil NO3                                        93.54               69.03
!   Soil NH4                                        10.26                3.74
!   Soil Urea                                        0.00                0.00
!   Soil N gases                                     0.00                0.28
!   Unreleased fert N                                                    0.00

! N additions:
!   Fertilizer N                                   120.00
!   Mineralized N                                   62.31

! N subtractions:
!   N immobilized                                                        2.54
!   N leached                                                           23.52
!   N loss to tile drainage                                              0.00
!   N Uptake From Soil                                                 186.07
!   NH3 loss                                                             0.00
!   N2O loss                                                             0.14
!   N2 loss                                                              0.26
!   NO loss                                                              0.53

!   Total N balance                                286.11              286.11
!   Balance                                                             0.000

!===============================================================================

*DSSAT Cropping System Model Ver. 4.8.5.000 -release  MAR 01, 2026 09:34:40

*RUN   3        : 3                         WHAPS048 TUDU1701    3
 MODEL          : WHAPS048 - Wheat
 EXPERIMENT     : TUDU1701 WH
 DATA PATH      :
 TREATMENT  3   : 3                         WHAPS048
  


!SOIL INORGANIC N BALANCE                         Initial               Final
!                                                Year/Doy            Year/Doy
!                                                  16/298              17/219
!                                               (kg[N]/ha)          (kg[N]/ha)
! Soil N state variables:
!   Soil NO3                                        93.54              109.39
!   Soil NH4                                        10.26                4.39
!   Soil Urea                                        0.00                0.00
!   Soil N gases                                     0.00                0.39
!   Unreleased fert N                                                    0.00

! N additions:
!   Fertilizer N                                    40.00
!   Mineralized N                                   69.18

! N subtractions:
!   N immobilized                                                        1.86
!   N leached                                                           24.72
!   N loss to tile drainage                                              0.00
!   N Uptake From Soil                                                  69.35
!   NH3 loss                                                             2.20
!   N2O loss                                                             0.10
!   N2 loss                                                              0.32
!   NO loss                                                              0.25

!   Total N balance                                212.98              212.98
!   Balance                                                            -0.000

!===============================================================================

*DSSAT Cropping System Model Ver. 4.8.5.000 -release  MAR 01, 2026 09:34:41

*RUN   4        : 4                         WHAPS048 TUDU1701    4
 MODEL          : WHAPS048 - Wheat
 EXPERIMENT     : TUDU1701 WH
 DATA PATH      :
 TREATMENT  4   : 4                         WHAPS048
  


!SOIL INORGANIC N BALANCE                         Initial               Final
!                                                Year/Doy            Year/Doy
!                                                  16/298              17/219
!                                               (kg[N]/ha)          (kg[N]/ha)
! Soil N state variables:
!   Soil NO3                                        93.54               68.09
!   Soil NH4                                        10.26                3.69
!   Soil Urea                                        0.00                0.00
!   Soil N gases                                     0.00                0.26
!   Unreleased fert N                                                    0.00

! N additions:
!   Fertilizer N                                   120.00
!   Mineralized N                                   62.40

! N subtractions:
!   N immobilized                                                        2.53
!   N leached                                                           23.65
!   N loss to tile drainage                                              0.00
!   N Uptake From Soil                                                 184.64
!   NH3 loss                                                             2.60
!   N2O loss                                                             0.11
!   N2 loss                                                              0.26
!   NO loss                                                              0.37

!   Total N balance                                286.21              286.21
!   Balance                                                             0.000

!===============================================================================

*DSSAT Cropping System Model Ver. 4.8.5.000 -release  MAR 01, 2026 09:34:41

*RUN   5        : 5                         WHAPS048 TUDU1701    5
 MODEL          : WHAPS048 - Wheat
 EXPERIMENT     : TUDU1701 WH
 DATA PATH      :
 TREATMENT  5   : 5                         WHAPS048
  


!SOIL INORGANIC N BALANCE                         Initial               Final
!                                                Year/Doy            Year/Doy
!                                                  16/298              17/219
!                                               (kg[N]/ha)          (kg[N]/ha)
! Soil N state variables:
!   Soil NO3                                        93.54               64.52
!   Soil NH4                                        10.26                3.64
!   Soil Urea                                        0.00                0.00
!   Soil N gases                                     0.00                0.29
!   Unreleased fert N                                                    0.00

! N additions:
!   Fertilizer N                                   120.00
!   Mineralized N                                   59.55

! N subtractions:
!   N immobilized                                                        2.58
!   N leached                                                           20.68
!   N loss to tile drainage                                              0.00
!   N Uptake From Soil                                                 189.46
!   NH3 loss                                                             1.17
!   N2O loss                                                             0.15
!   N2 loss                                                              0.27
!   NO loss                                                              0.59

!   Total N balance                                283.35              283.35
!   Balance                                                            -0.000

!===============================================================================

*DSSAT Cropping System Model Ver. 4.8.5.000 -release  MAR 01, 2026 09:34:41

*RUN   6        : 6                         WHAPS048 TUDU1701    6
 MODEL          : WHAPS048 - Wheat
 EXPERIMENT     : TUDU1701 WH
 DATA PATH      :
 TREATMENT  6   : 6                         WHAPS048
  


!SOIL INORGANIC N BALANCE                         Initial               Final
!                                                Year/Doy            Year/Doy
!                                                  16/298              17/219
!                                               (kg[N]/ha)          (kg[N]/ha)
! Soil N state variables:
!   Soil NO3                                        93.54               67.46
!   Soil NH4                                        10.26                3.69
!   Soil Urea                                        0.00                0.00
!   Soil N gases                                     0.00                0.26
!   Unreleased fert N                                                    0.00

! N additions:
!   Fertilizer N                                   120.00
!   Mineralized N                                   62.33

! N subtractions:
!   N immobilized                                                        2.54
!   N leached                                                           23.71
!   N loss to tile drainage                                              0.00
!   N Uptake From Soil                                                 182.89
!   NH3 loss                                                             4.73
!   N2O loss                                                             0.13
!   N2 loss                                                              0.26
!   NO loss                                                              0.47

!   Total N balance                                286.13              286.13
!   Balance                                                             0.000

!===============================================================================

*DSSAT Cropping System Model Ver. 4.8.5.000 -release  MAR 01, 2026 09:34:41

*RUN   7        : 7                         WHAPS048 TUDU1701    7
 MODEL          : WHAPS048 - Wheat
 EXPERIMENT     : TUDU1701 WH
 DATA PATH      :
 TREATMENT  7   : 7                         WHAPS048
  


!SOIL INORGANIC N BALANCE                         Initial               Final
!                                                Year/Doy            Year/Doy
!                                                  16/298              17/219
!                                               (kg[N]/ha)          (kg[N]/ha)
! Soil N state variables:
!   Soil NO3                                        93.54               64.83
!   Soil NH4                                        10.26                3.66
!   Soil Urea                                        0.00                0.00
!   Soil N gases                                     0.00                0.29
!   Unreleased fert N                                                    0.00

! N additions:
!   Fertilizer N                                   120.00
!   Mineralized N                                   58.80

! N subtractions:
!   N immobilized                                                        2.58
!   N leached                                                           20.66
!   N loss to tile drainage                                              0.00
!   N Uptake From Soil                                                 188.32
!   NH3 loss                                                             1.60
!   N2O loss                                                             0.10
!   N2 loss                                                              0.27
!   NO loss                                                              0.30

!   Total N balance                                282.61              282.61
!   Balance                                                             0.000

!===============================================================================

*DSSAT Cropping System Model Ver. 4.8.5.000 -release  MAR 01, 2026 09:34:41

*RUN   8        : 8                         WHAPS048 TUDU1701    8
 MODEL          : WHAPS048 - Wheat
 EXPERIMENT     : TUDU1701 WH
 DATA PATH      :
 TREATMENT  8   : 8                         WHAPS048
  


!SOIL INORGANIC N BALANCE                         Initial               Final
!                                                Year/Doy            Year/Doy
!                                                  16/298              17/219
!                                               (kg[N]/ha)          (kg[N]/ha)
! Soil N state variables:
!   Soil NO3                                        93.54               68.49
!   Soil NH4                                        10.26                3.66
!   Soil Urea                                        0.00                0.00
!   Soil N gases                                     0.00                0.23
!   Unreleased fert N                                                    0.00

! N additions:
!   Fertilizer N                                   180.00
!   Mineralized N                                   58.63

! N subtractions:
!   N immobilized                                                        2.62
!   N leached                                                           18.39
!   N loss to tile drainage                                              0.00
!   N Uptake From Soil                                                 248.20
!   NH3 loss                                                             0.00
!   N2O loss                                                             0.14
!   N2 loss                                                              0.28
!   NO loss                                                              0.42

!   Total N balance                                342.44              342.44
!   Balance                                                            -0.000

!===============================================================================

*DSSAT Cropping System Model Ver. 4.8.5.000 -release  MAR 01, 2026 09:34:42

*RUN   9        : 9                         WHAPS048 TUDU1701    9
 MODEL          : WHAPS048 - Wheat
 EXPERIMENT     : TUDU1701 WH
 DATA PATH      :
 TREATMENT  9   : 9                         WHAPS048
  


!SOIL INORGANIC N BALANCE                         Initial               Final
!                                                Year/Doy            Year/Doy
!                                                  16/298              17/219
!                                               (kg[N]/ha)          (kg[N]/ha)
! Soil N state variables:
!   Soil NO3                                        93.54               68.49
!   Soil NH4                                        10.26                3.67
!   Soil Urea                                        0.00                0.00
!   Soil N gases                                     0.00                0.23
!   Unreleased fert N                                                    0.00

! N additions:
!   Fertilizer N                                   180.00
!   Mineralized N                                   58.57

! N subtractions:
!   N immobilized                                                        2.62
!   N leached                                                           18.42
!   N loss to tile drainage                                              0.00
!   N Uptake From Soil                                                 247.87
!   NH3 loss                                                             0.00
!   N2O loss                                                             0.17
!   N2 loss                                                              0.28
!   NO loss                                                              0.62

!   Total N balance                                342.37              342.37
!   Balance                                                             0.000

!===============================================================================

*DSSAT Cropping System Model Ver. 4.8.5.000 -release  MAR 01, 2026 09:34:42

*RUN  10        : 10                        WHAPS048 TUDU1701   10
 MODEL          : WHAPS048 - Wheat
 EXPERIMENT     : TUDU1701 WH
 DATA PATH      :
 TREATMENT 10   : 10                        WHAPS048
  


!SOIL INORGANIC N BALANCE                         Initial               Final
!                                                Year/Doy            Year/Doy
!                                                  16/298              17/219
!                                               (kg[N]/ha)          (kg[N]/ha)
! Soil N state variables:
!   Soil NO3                                        93.54              129.10
!   Soil NH4                                        10.26                4.39
!   Soil Urea                                        0.00                0.00
!   Soil N gases                                     0.00                0.46
!   Unreleased fert N                                                    0.00

! N additions:
!   Fertilizer N                                    60.00
!   Mineralized N                                   69.24

! N subtractions:
!   N immobilized                                                        1.86
!   N leached                                                           24.72
!   N loss to tile drainage                                              0.00
!   N Uptake From Soil                                                  69.41
!   NH3 loss                                                             2.31
!   N2O loss                                                             0.13
!   N2 loss                                                              0.34
!   NO loss                                                              0.34

!   Total N balance                                233.04              233.04
!   Balance                                                            -0.000

!===============================================================================

*DSSAT Cropping System Model Ver. 4.8.5.000 -release  MAR 01, 2026 09:34:43

*RUN  11        : 11                        WHAPS048 TUDU1701   11
 MODEL          : WHAPS048 - Wheat
 EXPERIMENT     : TUDU1701 WH
 DATA PATH      :
 TREATMENT 11   : 11                        WHAPS048
  


!SOIL INORGANIC N BALANCE                         Initial               Final
!                                                Year/Doy            Year/Doy
!                                                  16/298              17/219
!                                               (kg[N]/ha)          (kg[N]/ha)
! Soil N state variables:
!   Soil NO3                                        93.54               68.49
!   Soil NH4                                        10.26                3.66
!   Soil Urea                                        0.00                0.00
!   Soil N gases                                     0.00                0.23
!   Unreleased fert N                                                    0.00

! N additions:
!   Fertilizer N                                   180.00
!   Mineralized N                                   58.63

! N subtractions:
!   N immobilized                                                        2.62
!   N leached                                                           18.39
!   N loss to tile drainage                                              0.00
!   N Uptake From Soil                                                 248.20
!   NH3 loss                                                             0.00
!   N2O loss                                                             0.14
!   N2 loss                                                              0.28
!   NO loss                                                              0.42

!   Total N balance                                342.44              342.44
!   Balance                                                             0.000

!===============================================================================

*DSSAT Cropping System Model Ver. 4.8.5.000 -release  MAR 01, 2026 09:34:43

*RUN  12        : 12                        WHAPS048 TUDU1701   12
 MODEL          : WHAPS048 - Wheat
 EXPERIMENT     : TUDU1701 WH
 DATA PATH      :
 TREATMENT 12   : 12                        WHAPS048
  


!SOIL INORGANIC N BALANCE                         Initial               Final
!                                                Year/Doy            Year/Doy
!                                                  16/298              17/219
!                                               (kg[N]/ha)          (kg[N]/ha)
! Soil N state variables:
!   Soil NO3                                        93.54               68.30
!   Soil NH4                                        10.26                3.64
!   Soil Urea                                        0.00                0.00
!   Soil N gases                                     0.00                0.24
!   Unreleased fert N                                                    0.00

! N additions:
!   Fertilizer N                                   180.00
!   Mineralized N                                   58.54

! N subtractions:
!   N immobilized                                                        2.62
!   N leached                                                           18.48
!   N loss to tile drainage                                              0.00
!   N Uptake From Soil                                                 246.02
!   NH3 loss                                                             1.92
!   N2O loss                                                             0.17
!   N2 loss                                                              0.26
!   NO loss                                                              0.70

!   Total N balance                                342.34              342.34
!   Balance                                                            -0.000

!===============================================================================

*DSSAT Cropping System Model Ver. 4.8.5.000 -release  MAR 01, 2026 09:34:43

*RUN  13        : 13                        WHAPS048 TUDU1701   13
 MODEL          : WHAPS048 - Wheat
 EXPERIMENT     : TUDU1701 WH
 DATA PATH      :
 TREATMENT 13   : 13                        WHAPS048
  


!SOIL INORGANIC N BALANCE                         Initial               Final
!                                                Year/Doy            Year/Doy
!                                                  16/298              17/219
!                                               (kg[N]/ha)          (kg[N]/ha)
! Soil N state variables:
!   Soil NO3                                        93.54               67.48
!   Soil NH4                                        10.26                3.62
!   Soil Urea                                        0.00                0.00
!   Soil N gases                                     0.00                0.23
!   Unreleased fert N                                                    0.00

! N additions:
!   Fertilizer N                                   180.00
!   Mineralized N                                   58.48

! N subtractions:
!   N immobilized                                                        2.62
!   N leached                                                           18.55
!   N loss to tile drainage                                              0.00
!   N Uptake From Soil                                                 244.65
!   NH3 loss                                                             4.10
!   N2O loss                                                             0.17
!   N2 loss                                                              0.28
!   NO loss                                                              0.59

!   Total N balance                                342.28              342.28
!   Balance                                                            -0.000

!===============================================================================

*DSSAT Cropping System Model Ver. 4.8.5.000 -release  MAR 01, 2026 09:34:44

*RUN  14        : 14                        WHAPS048 TUDU1701   14
 MODEL          : WHAPS048 - Wheat
 EXPERIMENT     : TUDU1701 WH
 DATA PATH      :
 TREATMENT 14   : 14                        WHAPS048
  


!SOIL INORGANIC N BALANCE                         Initial               Final
!                                                Year/Doy            Year/Doy
!                                                  16/298              17/219
!                                               (kg[N]/ha)          (kg[N]/ha)
! Soil N state variables:
!   Soil NO3                                        93.54               78.85
!   Soil NH4                                        10.26                3.64
!   Soil Urea                                        0.00                0.00
!   Soil N gases                                     0.00                0.29
!   Unreleased fert N                                                    0.00

! N additions:
!   Fertilizer N                                   180.00
!   Mineralized N                                   61.07

! N subtractions:
!   N immobilized                                                        2.58
!   N leached                                                           20.65
!   N loss to tile drainage                                              0.00
!   N Uptake From Soil                                                 235.71
!   NH3 loss                                                             2.27
!   N2O loss                                                             0.13
!   N2 loss                                                              0.27
!   NO loss                                                              0.48

!   Total N balance                                344.88              344.88
!   Balance                                                            -0.000

!===============================================================================

*DSSAT Cropping System Model Ver. 4.8.5.000 -release  MAR 01, 2026 09:34:44

*RUN  15        : 15                        WHAPS048 TUDU1701   15
 MODEL          : WHAPS048 - Wheat
 EXPERIMENT     : TUDU1701 WH
 DATA PATH      :
 TREATMENT 15   : 15                        WHAPS048
  


!SOIL INORGANIC N BALANCE                         Initial               Final
!                                                Year/Doy            Year/Doy
!                                                  16/298              17/219
!                                               (kg[N]/ha)          (kg[N]/ha)
! Soil N state variables:
!   Soil NO3                                        93.54               72.73
!   Soil NH4                                        10.26                4.30
!   Soil Urea                                        0.00                0.00
!   Soil N gases                                     0.00                0.31
!   Unreleased fert N                                                    0.00

! N additions:
!   Fertilizer N                                     0.00
!   Mineralized N                                   66.82

! N subtractions:
!   N immobilized                                                        1.80
!   N leached                                                           24.72
!   N loss to tile drainage                                              0.00
!   N Uptake From Soil                                                  66.28
!   NH3 loss                                                             0.00
!   N2O loss                                                             0.07
!   N2 loss                                                              0.29
!   NO loss                                                              0.12

!   Total N balance                                170.62              170.62
!   Balance                                                            -0.000
