*Soil Inorganic Nitrogen daily output file

*DSSAT Cropping System Model Ver. 4.8.5.000 -release  MAR 01, 2026 09:34:40

*RUN   1        : 1                         WHAPS048 TUDU1701    1
 MODEL          : WHAPS048 - Wheat
 EXPERIMENT     : TUDU1701 WH
 DATA PATH      :
 TREATMENT  1   : 1                         WHAPS048
  
!                                                                                                                                      NO3 (ppm) at soil dep. (cm):                                                    NH4 (ppm) at soil dep. (cm):                                                    Total Inorganic N @dep(ppm):
!                                                                                                                                       0-5    5-15   15-20   20-30   30-40   40-50   50-60   60-70   70-90  90-210     0-5    5-15   15-20   20-30   30-40   40-50   50-60   60-70   70-90  90-210     0-5    5-15   15-20   20-30   30-40   40-50   50-60   60-70   70-90  90-210
@YEAR DOY   DAS  NAPC  NI#M    NIAD    NITD    NHTD   NURTD    NMNC    NITC    NDNC    NIMC    AMLC   NNMNC    NUCM    NLCC    TDNC    NI1D    NI2D    NI3D    NI4D    NI5D    NI6D    NI7D    NI8D    NI9D    NI10    NH1D    NH2D    NH3D    NH4D    NH5D    NH6D    NH7D    NH8D    NH9D    NH10    NT1D    NT2D    NT3D    NT4D    NT5D    NT6D    NT7D    NT8D    NT9D    NT10    
   16 297     0     0     0   103.8    93.5    10.3     0.0    0.00    0.00    0.00    0.00    0.00    0.00    0.00    0.00    0.00    3.10     3.1     3.1    3.10    3.10    3.10    3.10    3.10    3.10    3.10    0.34    0.34    0.34    0.34    0.34    0.34    0.34    0.34    0.34    0.34    3.44    3.44    3.44    3.44    3.44    3.44    3.44    3.44    3.44    3.44
   16 298     1     0     0   103.7    95.2     8.5     0.0    0.24    1.65    0.00    0.32    0.00   -0.07    0.00    0.00    0.00    2.91     3.3     3.1    3.15    3.15    3.15    3.15    3.15    3.15    3.16    0.14    0.13    0.30    0.30    0.30    0.30    0.30    0.30    0.29    0.29    3.04    3.39    3.45    3.45    3.45    3.45    3.45    3.45    3.45    3.45
   16 299     2     0     0   103.6    96.5     7.2     0.0    0.49    3.00    0.00    0.64    0.00   -0.14    0.00    0.00    0.00    2.65     3.3     3.3    3.19    3.19    3.19    3.20    3.20    3.20    3.20    0.00    0.00    0.27    0.27    0.27    0.26    0.26    0.26    0.25    0.25    2.65    3.28    3.58    3.46    3.46    3.45    3.46    3.46    3.45    3.46
   16 300     3     0     0   103.6    97.3     6.3     0.0    0.74    4.15    0.00    0.92    0.00   -0.18    0.00    0.00    0.00    2.45     3.1     3.4    3.25    3.23    3.23    3.23    3.24    3.24    3.24    0.00    0.00    0.24    0.24    0.24    0.23    0.23    0.23    0.22    0.22    2.45    3.12    3.63    3.48    3.47    3.46    3.46    3.47    3.46    3.46
   16 301     4     0     0   103.6    98.1     5.6     0.0    0.98    5.11    0.00    1.15    0.00   -0.17    0.00    0.00    0.00    2.34     3.0     3.4    3.29    3.26    3.26    3.27    3.27    3.27    3.28    0.00    0.00    0.22    0.22    0.21    0.21    0.21    0.21    0.20    0.19    2.34    2.99    3.61    3.50    3.48    3.47    3.47    3.47    3.47    3.47
   16 302     5     0     0   103.7    98.7     5.0     0.0    1.19    5.91    0.00    1.31    0.00   -0.12    0.00    0.00    0.00    2.28     2.9     3.4    3.32    3.29    3.29    3.29    3.30    3.30    3.31    0.00    0.00    0.21    0.20    0.20    0.19    0.19    0.19    0.18    0.17    2.28    2.90    3.60    3.52    3.49    3.48    3.48    3.48    3.48    3.48
   16 303     6     0     0   103.7    99.2     4.5     0.0    1.37    6.57    0.00    1.42    0.00   -0.04    0.00    0.00    0.00    2.25     2.8     3.4    3.35    3.32    3.31    3.32    3.32    3.32    3.33    0.00    0.00    0.19    0.18    0.18    0.17    0.17    0.17    0.16    0.16    2.25    2.83    3.60    3.53    3.50    3.48    3.49    3.49    3.48    3.49
   16 304     7     0     0   103.8    99.7     4.1     0.0    1.53    7.13    0.00    1.49    0.00    0.04    0.00    0.00    0.00    2.23     2.8     3.4    3.37    3.34    3.33    3.33    3.34    3.34    3.35    0.00    0.00    0.18    0.17    0.17    0.16    0.16    0.15    0.14    0.14    2.23    2.78    3.60    3.54    3.50    3.49    3.49    3.49    3.49    3.49
   16 305     8     0     0   103.9   100.2     3.7     0.0    1.66    7.62    0.00    1.52    0.00    0.14    0.00    0.00    0.00    2.23     2.7     3.4    3.39    3.36    3.35    3.35    3.36    3.36    3.37    0.00    0.00    0.16    0.15    0.15    0.15    0.14    0.14    0.13    0.13    2.23    2.75    3.60    3.55    3.51    3.49    3.49    3.50    3.49    3.50
   16 306     9     0     0   104.0   100.6     3.4     0.0    1.78    8.04    0.00    1.55    0.00    0.23    0.00    0.00    0.00    2.23     2.7     3.4    3.41    3.37    3.36    3.37    3.37    3.37    3.38    0.00    0.00    0.15    0.14    0.14    0.13    0.13    0.13    0.12    0.12    2.23    2.73    3.60    3.55    3.52    3.50    3.50    3.50    3.49    3.50
   16 307    10     0     0   104.1   101.0     3.1     0.0    1.88    8.42    0.00    1.55    0.00    0.32    0.00    0.00    0.00    2.23     2.7     3.5    3.43    3.39    3.37    3.38    3.38    3.38    3.39    0.00    0.00    0.14    0.13    0.13    0.12    0.12    0.12    0.11    0.11    2.23    2.71    3.60    3.56    3.52    3.50    3.50    3.50    3.50    3.50
   16 308    11     0     0   104.2   101.3     2.9     0.0    1.98    8.77    0.00    1.56    0.00    0.42    0.00    0.00    0.00    2.23     2.7     3.5    3.44    3.40    3.39    3.39    3.40    3.40    3.41    0.00    0.00    0.13    0.12    0.12    0.11    0.11    0.11    0.10    0.10    2.23    2.70    3.59    3.56    3.52    3.50    3.50    3.51    3.50    3.51
   16 309    12     0     0   104.3   101.6     2.7     0.0    2.06    9.07    0.00    1.56    0.00    0.50    0.00    0.00    0.00    2.23     2.7     3.5    3.45    3.41    3.40    3.40    3.41    3.41    3.42    0.00    0.00    0.12    0.11    0.11    0.11    0.10    0.10    0.09    0.09    2.23    2.70    3.59    3.56    3.53    3.50    3.50    3.51    3.50    3.51
   16 310    13     0     0   104.3   101.9     2.5     0.0    2.13    9.35    0.00    1.56    0.00    0.56    0.00    0.00    0.00    1.69     2.9     3.6    3.48    3.43    3.41    3.41    3.42    3.42    3.43    0.00    0.00    0.11    0.10    0.10    0.10    0.10    0.10    0.09    0.09    1.69    2.90    3.67    3.58    3.53    3.50    3.51    3.51    3.50    3.51
   16 311    14     0     0   104.4   102.1     2.3     0.0    2.20    9.60    0.00    1.56    0.00    0.64    0.00    0.00    0.00    1.16     2.8     3.8    3.65    3.50    3.42    3.42    3.42    3.42    3.43    0.00    0.00    0.10    0.10    0.10    0.09    0.09    0.09    0.08    0.08    1.16    2.82    3.86    3.75    3.60    3.51    3.51    3.51    3.50    3.51
   16 312    15     0     0   104.3   102.2     2.1     0.0    2.28    9.84    0.00    1.56    0.00    0.72    0.18    0.00    0.00    0.91     2.6     3.7    3.73    3.64    3.47    3.43    3.43    3.43    3.44    0.00    0.00    0.10    0.09    0.09    0.08    0.08    0.08    0.07    0.07    0.91    2.59    3.79    3.82    3.72    3.55    3.51    3.51    3.51    3.52
   16 313    16     0     0   104.3   102.4     2.0     0.0    2.34   10.05    0.00    1.56    0.00    0.78    0.21    0.00    0.00    0.82     2.5     3.6    3.75    3.71    3.60    3.44    3.44    3.44    3.45    0.00    0.00    0.09    0.08    0.08    0.08    0.08    0.08    0.07    0.07    0.82    2.47    3.65    3.84    3.79    3.67    3.51    3.51    3.51    3.52
   16 314    17     0     0   104.4   102.5     1.8     0.0    2.39   10.24    0.00    1.56    0.00    0.83    0.21    0.00    0.00    0.71     2.4     3.5    3.75    3.76    3.67    3.53    3.45    3.44    3.46    0.00    0.00    0.09    0.08    0.08    0.07    0.07    0.07    0.06    0.06    0.71    2.37    3.54    3.82    3.84    3.74    3.60    3.52    3.51    3.52
   16 315    18     0     0   104.4   102.7     1.7     0.0    2.44   10.41    0.00    1.56    0.00    0.88    0.22    0.00    0.00    0.53     2.2     3.4    3.76    3.81    3.74    3.65    3.49    3.45    3.46    0.00    0.00    0.08    0.07    0.07    0.07    0.06    0.06    0.06    0.06    0.53    2.20    3.48    3.83    3.88    3.81    3.71    3.55    3.51    3.52
   16 316    19     0     0   104.4   102.8     1.6     0.0    2.48   10.57    0.00    1.56    0.00    0.92    0.24    0.00    0.00    0.38     2.0     3.3    3.76    3.87    3.82    3.73    3.62    3.46    3.47    0.00    0.00    0.08    0.07    0.07    0.06    0.06    0.06    0.05    0.05    0.38    1.97    3.36    3.83    3.94    3.88    3.79    3.68    3.51    3.52
   16 317    20     0     0   104.4   102.9     1.5     0.0    2.52   10.71    0.00    1.56    0.00    0.96    0.32    0.00    0.00    0.30     1.7     2.8    3.44    3.68    3.71    3.67    3.60    3.60    3.64    0.00    0.00    0.08    0.07    0.06    0.06    0.06    0.05    0.05    0.05    0.30    1.73    2.86    3.51    3.74    3.76    3.72    3.65    3.65    3.69
   16 318    21     0     0   104.4   103.0     1.4     0.0    2.56   10.84    0.00    1.56    0.00    0.99    0.36    0.00    0.00    0.25     1.6     2.5    3.29    3.58    3.65    3.64    3.61    3.60    3.63    0.00    0.00    0.07    0.06    0.06    0.05    0.05    0.05    0.05    0.05    0.25    1.61    2.62    3.35    3.64    3.70    3.69    3.65    3.64    3.68
   16 319    22     0     0   104.4   103.1     1.3     0.0    2.59   10.95    0.00    1.56    0.00    1.02    0.37    0.00    0.00    0.24     1.6     2.4    3.22    3.53    3.62    3.64    3.61    3.60    3.63    0.00    0.00    0.07    0.06    0.06    0.05    0.05    0.05    0.04    0.04    0.24    1.57    2.50    3.28    3.59    3.67    3.69    3.65    3.64    3.68
   16 320    23     0     0   104.4   103.2     1.2     0.0    2.61   11.06    0.00    1.56    0.00    1.05    0.37    0.00    0.00    0.20     1.5     2.4    3.23    3.55    3.64    3.65    3.64    3.60    3.64    0.00    0.00    0.07    0.06    0.05    0.05    0.05    0.04    0.04    0.04    0.20    1.51    2.50    3.29    3.60    3.69    3.70    3.69    3.64    3.68
   16 321    24     0     0   104.5   103.3     1.2     0.0    2.62   11.15    0.00    1.56    0.00    1.06    0.37    0.00    0.00    0.14     1.3     2.4    3.26    3.61    3.69    3.68    3.66    3.62    3.64    0.00    0.00    0.06    0.05    0.05    0.05    0.04    0.04    0.04    0.04    0.14    1.33    2.47    3.32    3.66    3.73    3.72    3.70    3.66    3.68
   16 322    25     0     0   104.5   103.4     1.1     0.0    2.65   11.24    0.00    1.56    0.00    1.08    0.39    0.00    0.00    0.11     1.2     2.3    3.22    3.65    3.74    3.73    3.69    3.63    3.67    0.00    0.00    0.06    0.05    0.05    0.04    0.04    0.04    0.03    0.03    0.11    1.20    2.31    3.27    3.70    3.79    3.77    3.73    3.66    3.71
   16 323    26     0     0   104.4   103.3     1.0     0.0    2.69   11.34    0.00    1.56    0.00    1.13    0.51    0.00    0.00    0.04     1.0     2.1    3.14    3.67    3.80    3.78    3.73    3.64    3.68    0.00    0.00    0.06    0.05    0.05    0.04    0.04    0.04    0.03    0.03    0.04    1.01    2.14    3.19    3.71    3.84    3.82    3.77    3.68    3.71
   16 324    27     0     0   104.4   103.4     1.0     0.0    2.77   11.43    0.00    1.56    0.00    1.21    0.56    0.00    0.00    0.02     0.8     1.8    3.03    3.68    3.87    3.86    3.79    3.67    3.70    0.00    0.00    0.06    0.05    0.04    0.04    0.04    0.03    0.03    0.03    0.02    0.82    1.88    3.07    3.73    3.91    3.89    3.83    3.70    3.73
   16 325    28     0     0   102.1   101.1     1.0     0.0    2.87   11.53    0.00    1.57    0.00    1.30    0.60    2.32    0.00    0.01     0.7     1.5    2.60    3.31    3.61    3.70    3.68    3.61    3.64    0.00    0.00    0.05    0.04    0.04    0.04    0.04    0.03    0.03    0.03    0.01    0.69    1.52    2.64    3.35    3.65    3.74    3.72    3.64    3.68
   16 326    29     0     0   101.0    99.9     1.0     0.0    2.99   11.63    0.00    1.59    0.00    1.40    0.65    3.52    0.00    0.00     0.6     1.3    2.41    3.13    3.49    3.62    3.63    3.60    3.64    0.00    0.00    0.05    0.04    0.04    0.04    0.04    0.04    0.03    0.03    0.00    0.60    1.36    2.45    3.17    3.53    3.66    3.67    3.63    3.67
   16 327    30     0     0   100.5    99.4     1.1     0.0    3.11   11.73    0.00    1.61    0.00    1.50    0.69    4.08    0.00    0.00     0.5     1.2    2.33    3.05    3.43    3.58    3.61    3.59    3.63    0.00    0.00    0.05    0.04    0.04    0.04    0.04    0.04    0.03    0.03    0.00    0.54    1.29    2.37    3.09    3.47    3.62    3.64    3.63    3.67
   16 328    31     0     0   100.3    99.2     1.1     0.0    3.23   11.84    0.01    1.63    0.00    1.60    0.74    4.29    0.00    0.00     0.5     1.2    2.29    3.01    3.42    3.58    3.61    3.59    3.63    0.00    0.00    0.05    0.04    0.04    0.04    0.04    0.04    0.03    0.03    0.00    0.48    1.25    2.33    3.05    3.46    3.62    3.65    3.63    3.67
   16 329    32     0     0   100.3    99.2     1.1     0.0    3.34   11.94    0.02    1.65    0.00    1.69    0.78    4.35    0.00    0.00     0.4     1.2    2.28    3.01    3.42    3.58    3.61    3.60    3.64    0.00    0.00    0.05    0.04    0.04    0.04    0.04    0.04    0.03    0.04    0.00    0.43    1.23    2.32    3.05    3.45    3.62    3.65    3.63    3.67
   16 330    33     0     0   100.4    99.3     1.1     0.0    3.46   12.05    0.02    1.67    0.00    1.80    0.83    4.35    0.00    0.00     0.4     1.2    2.28    3.01    3.42    3.58    3.61    3.60    3.64    0.00    0.00    0.05    0.04    0.04    0.04    0.04    0.04    0.03    0.04    0.00    0.39    1.24    2.32    3.05    3.46    3.62    3.65    3.63    3.67
   16 331    34     0     0   100.4    99.3     1.1     0.0    3.60   12.16    0.03    1.70    0.00    1.90    0.86    4.35    0.00    0.00     0.3     1.2    2.28    3.01    3.42    3.59    3.62    3.60    3.64    0.01    0.00    0.05    0.04    0.04    0.04    0.04    0.04    0.03    0.04    0.01    0.34    1.24    2.32    3.05    3.46    3.62    3.66    3.64    3.68
   16 332    35     0     0   100.5    99.4     1.1     0.0    3.72   12.27    0.03    1.72    0.00    2.01    0.89    4.35    0.00    0.00     0.3     1.2    2.29    3.02    3.42    3.59    3.62    3.60    3.65    0.01    0.00    0.04    0.04    0.04    0.04    0.04    0.04    0.04    0.04    0.01    0.30    1.24    2.33    3.06    3.46    3.63    3.66    3.64    3.68
   16 333    36     0     0   100.5    99.4     1.1     0.0    3.82   12.38    0.04    1.72    0.00    2.10    0.92    4.35    0.00    0.00     0.3     1.2    2.29    3.02    3.43    3.59    3.62    3.61    3.65    0.00    0.00    0.04    0.04    0.04    0.04    0.04    0.04    0.03    0.04    0.00    0.27    1.24    2.33    3.06    3.46    3.63    3.66    3.64    3.69
   16 334    37     0     0   100.6    99.5     1.1     0.0    3.88   12.48    0.04    1.72    0.00    2.15    0.95    4.35    0.00    0.00     0.3     1.2    2.29    3.02    3.43    3.59    3.63    3.61    3.65    0.00    0.00    0.04    0.03    0.04    0.03    0.04    0.04    0.03    0.04    0.00    0.25    1.24    2.33    3.06    3.46    3.63    3.66    3.64    3.69
   16 335    38     0     0   100.6    99.6     1.0     0.0    3.90   12.56    0.04    1.72    0.00    2.18    0.97    4.35    0.00    0.00     0.2     1.2    2.29    3.02    3.43    3.60    3.63    3.61    3.65    0.00    0.00    0.04    0.03    0.03    0.03    0.03    0.03    0.03    0.03    0.00    0.24    1.23    2.33    3.06    3.46    3.63    3.66    3.64    3.69
   16 336    39     0     0   100.6    99.6     0.9     0.0    3.91   12.64    0.04    1.72    0.00    2.19    1.00    4.35    0.00    0.00     0.2     1.2    2.30    3.03    3.43    3.60    3.63    3.61    3.66    0.00    0.00    0.03    0.03    0.03    0.03    0.03    0.03    0.03    0.03    0.00    0.22    1.23    2.33    3.06    3.46    3.63    3.66    3.64    3.69
   16 337    40     0     0   100.5    99.7     0.9     0.0    3.92   12.70    0.04    1.72    0.00    2.19    1.02    4.35    0.00    0.00     0.2     1.2    2.30    3.03    3.43    3.60    3.63    3.62    3.66    0.00    0.00    0.03    0.03    0.03    0.03    0.03    0.03    0.03    0.03    0.00    0.21    1.23    2.33    3.06    3.46    3.63    3.66    3.64    3.69
   16 338    41     0     0   100.5    99.7     0.8     0.0    3.92   12.76    0.04    1.72    0.00    2.20    1.04    4.35    0.00    0.00     0.2     1.2    2.30    3.03    3.44    3.60    3.63    3.62    3.66    0.00    0.00    0.03    0.03    0.03    0.03    0.03    0.03    0.03    0.03    0.00    0.19    1.23    2.33    3.06    3.46    3.63    3.66    3.64    3.69
   16 339    42     0     0   100.5    99.7     0.8     0.0    3.92   12.82    0.04    1.72    0.00    2.20    1.05    4.35    0.00    0.00     0.2     1.2    2.30    3.03    3.44    3.60    3.63    3.62    3.66    0.00    0.00    0.03    0.03    0.03    0.03    0.03    0.03    0.02    0.03    0.00    0.18    1.23    2.33    3.06    3.46    3.63    3.66    3.64    3.69
   16 340    43     0     0   100.5    99.8     0.7     0.0    3.92   12.87    0.04    1.72    0.00    2.20    1.07    4.35    0.00    0.00     0.2     1.2    2.30    3.03    3.44    3.60    3.64    3.62    3.66    0.00    0.00    0.03    0.03    0.03    0.02    0.03    0.03    0.02    0.02    0.00    0.17    1.22    2.33    3.06    3.46    3.63    3.66    3.64    3.69
   16 341    44     0     0   100.5    99.8     0.7     0.0    3.92   12.92    0.04    1.72    0.00    2.20    1.09    4.35    0.00    0.00     0.2     1.2    2.30    3.03    3.44    3.60    3.64    3.62    3.66    0.00    0.00    0.03    0.02    0.03    0.02    0.02    0.02    0.02    0.02    0.00    0.16    1.22    2.33    3.06    3.46    3.63    3.66    3.64    3.69
   16 342    45     0     0   100.5    99.8     0.6     0.0    3.92   12.96    0.04    1.72    0.00    2.20    1.10    4.35    0.00    0.00     0.1     1.2    2.30    3.03    3.44    3.61    3.64    3.62    3.67    0.00    0.00    0.03    0.02    0.02    0.02    0.02    0.02    0.02    0.02    0.00    0.15    1.22    2.33    3.06    3.46    3.63    3.66    3.64    3.69
   16 343    46     0     0   100.4    99.8     0.6     0.0    3.92   12.99    0.04    1.72    0.00    2.20    1.12    4.35    0.00    0.00     0.1     1.2    2.30    3.03    3.44    3.61    3.64    3.62    3.67    0.00    0.00    0.03    0.02    0.02    0.02    0.02    0.02    0.02    0.02    0.00    0.14    1.22    2.33    3.06    3.46    3.63    3.66    3.64    3.69
   16 344    47     0     0   100.4    99.9     0.6     0.0    3.92   13.03    0.04    1.72    0.00    2.20    1.13    4.35    0.00    0.00     0.1     1.2    2.30    3.04    3.44    3.61    3.64    3.62    3.67    0.00    0.00    0.02    0.02    0.02    0.02    0.02    0.02    0.02    0.02    0.00    0.13    1.22    2.33    3.06    3.46    3.63    3.66    3.64    3.69
   16 345    48     0     0   100.4    99.9     0.5     0.0    3.92   13.06    0.04    1.72    0.00    2.20    1.14    4.35    0.00    0.00     0.1     1.2    2.31    3.04    3.44    3.61    3.64    3.63    3.67    0.00    0.00    0.02    0.02    0.02    0.02    0.02    0.02    0.02    0.02    0.00    0.12    1.21    2.33    3.06    3.46    3.63    3.66    3.64    3.69
   16 346    49     0     0   100.4    99.9     0.5     0.0    3.93   13.10    0.04    1.72    0.00    2.20    1.15    4.35    0.00    0.00     0.1     1.2    2.31    3.04    3.44    3.61    3.64    3.63    3.67    0.00    0.00    0.02    0.02    0.02    0.02    0.02    0.02    0.02    0.02    0.00    0.11    1.21    2.33    3.06    3.46    3.63    3.66    3.64    3.69
   16 347    50     0     0   100.4    99.9     0.5     0.0    3.93   13.13    0.04    1.72    0.00    2.21    1.17    4.35    0.00    0.00     0.1     1.2    2.31    3.04    3.45    3.61    3.64    3.63    3.67    0.00    0.00    0.02    0.02    0.02    0.02    0.02    0.02    0.02    0.02    0.00    0.11    1.21    2.32    3.06    3.46    3.63    3.66    3.64    3.69
   16 348    51     0     0   100.4   100.0     0.4     0.0    3.94   13.17    0.04    1.72    0.00    2.22    1.18    4.35    0.00    0.00     0.1     1.2    2.31    3.04    3.45    3.61    3.64    3.63    3.67    0.00    0.00    0.02    0.02    0.02    0.02    0.02    0.02    0.01    0.01    0.00    0.10    1.20    2.32    3.06    3.46    3.63    3.66    3.64    3.69
   16 349    52     0     0   100.4   100.0     0.4     0.0    3.95   13.20    0.04    1.72    0.00    2.23    1.19    4.35    0.00    0.00     0.1     1.2    2.31    3.04    3.45    3.61    3.65    3.63    3.67    0.00    0.00    0.02    0.02    0.02    0.02    0.02    0.02    0.01    0.01    0.00    0.09    1.20    2.32    3.06    3.46    3.63    3.66    3.64    3.69
   16 350    53     0     0   100.4   100.0     0.4     0.0    3.97   13.23    0.04    1.72    0.00    2.25    1.20    4.35    0.00    0.00     0.1     1.2    2.31    3.04    3.45    3.61    3.65    3.63    3.67    0.00    0.00    0.02    0.02    0.02    0.01    0.02    0.01    0.01    0.01    0.00    0.09    1.20    2.32    3.06    3.46    3.63    3.66    3.64    3.69
   16 351    54     0     0   100.4   100.0     0.4     0.0    3.98   13.26    0.04    1.72    0.00    2.26    1.21    4.35    0.00    0.00     0.1     1.2    2.31    3.04    3.45    3.61    3.65    3.63    3.68    0.00    0.00    0.02    0.01    0.02    0.01    0.01    0.01    0.01    0.01    0.00    0.08    1.19    2.32    3.06    3.46    3.63    3.66    3.64    3.69
   16 352    55     0     0   100.4   100.0     0.4     0.0    4.00   13.29    0.04    1.72    0.00    2.28    1.23    4.35    0.00    0.00     0.1     1.2    2.30    3.04    3.45    3.62    3.65    3.63    3.68    0.00    0.00    0.02    0.01    0.01    0.01    0.01    0.01    0.01    0.01    0.00    0.08    1.19    2.32    3.06    3.46    3.63    3.66    3.64    3.69
   16 353    56     0     0   100.4   100.1     0.4     0.0    4.01   13.32    0.04    1.72    0.00    2.29    1.24    4.35    0.00    0.00     0.1     1.2    2.30    3.04    3.45    3.62    3.65    3.63    3.68    0.00    0.00    0.01    0.01    0.01    0.01    0.01    0.01    0.01    0.01    0.00    0.07    1.18    2.32    3.06    3.46    3.63    3.66    3.64    3.69
   16 354    57     0     0   100.4   100.1     0.3     0.0    4.02   13.35    0.04    1.72    0.00    2.29    1.25    4.35    0.00    0.00     0.1     1.2    2.30    3.04    3.45    3.62    3.65    3.63    3.68    0.00    0.00    0.01    0.01    0.01    0.01    0.01    0.01    0.01    0.01    0.00    0.07    1.18    2.31    3.06    3.46    3.63    3.66    3.64    3.69
   16 355    58     0     0   100.4   100.1     0.3     0.0    4.02   13.37    0.04    1.72    0.00    2.30    1.26    4.35    0.00    0.00     0.1     1.2    2.30    3.05    3.45    3.62    3.65    3.63    3.68    0.00    0.00    0.01    0.01    0.01    0.01    0.01    0.01    0.01    0.01    0.00    0.06    1.17    2.31    3.06    3.46    3.63    3.66    3.64    3.69
   16 356    59     0     0   100.4   100.1     0.3     0.0    4.02   13.39    0.04    1.72    0.00    2.30    1.27    4.35    0.00    0.00     0.1     1.2    2.30    3.05    3.45    3.62    3.65    3.63    3.68    0.00    0.00    0.01    0.01    0.01    0.01    0.01    0.01    0.01    0.01    0.00    0.06    1.17    2.31    3.06    3.46    3.63    3.66    3.64    3.69
   16 357    60     0     0   100.4   100.1     0.3     0.0    4.02   13.41    0.04    1.72    0.00    2.30    1.28    4.35    0.00    0.00     0.1     1.2    2.30    3.05    3.45    3.62    3.65    3.63    3.68    0.00    0.00    0.01    0.01    0.01    0.01    0.01    0.01    0.01    0.01    0.00    0.06    1.16    2.31    3.06    3.46    3.63    3.66    3.64    3.69
   16 358    61     0     0   100.4   100.1     0.3     0.0    4.02   13.43    0.04    1.72    0.00    2.30    1.30    4.35    0.00    0.00     0.1     1.1    2.29    3.05    3.45    3.62    3.65    3.64    3.68    0.00    0.00    0.01    0.01    0.01    0.01    0.01    0.01    0.01    0.01    0.00    0.05    1.16    2.30    3.06    3.46    3.63    3.66    3.64    3.69
   16 359    62     0     0   100.4   100.1     0.2     0.0    4.02   13.45    0.04    1.72    0.00    2.30    1.30    4.35    0.00    0.00     0.1     1.1    2.29    3.05    3.45    3.62    3.65    3.64    3.68    0.00    0.00    0.01    0.01    0.01    0.01    0.01    0.01    0.01    0.01    0.00    0.05    1.15    2.30    3.06    3.46    3.63    3.66    3.64    3.69
   16 360    63     0     0   100.3   100.1     0.2     0.0    4.02   13.46    0.04    1.72    0.00    2.30    1.31    4.35    0.00    0.00     0.0     1.1    2.29    3.05    3.45    3.62    3.65    3.64    3.68    0.00    0.00    0.01    0.01    0.01    0.01    0.01    0.01    0.01    0.01    0.00    0.05    1.15    2.30    3.06    3.46    3.63    3.66    3.64    3.69
   16 361    64     0     0   100.3   100.1     0.2     0.0    4.03   13.48    0.04    1.72    0.00    2.31    1.32    4.35    0.00    0.00     0.0     1.1    2.29    3.05    3.45    3.62    3.65    3.64    3.68    0.00    0.00    0.01    0.01    0.01    0.01    0.01    0.01    0.01    0.01    0.00    0.04    1.14    2.30    3.06    3.46    3.63    3.66    3.64    3.69
   16 362    65     0     0   100.4   100.1     0.2     0.0    4.05   13.50    0.04    1.72    0.00    2.33    1.34    4.35    0.00    0.00     0.0     1.1    2.29    3.05    3.45    3.62    3.65    3.64    3.68    0.00    0.00    0.01    0.01    0.01    0.01    0.01    0.01    0.01    0.01    0.00    0.04    1.14    2.29    3.06    3.46    3.63    3.66    3.64    3.69
   16 363    66     0     0   100.4   100.1     0.2     0.0    4.09   13.51    0.04    1.72    0.00    2.36    1.35    4.35    0.00    0.00     0.0     1.1    2.28    3.05    3.46    3.62    3.65    3.64    3.68    0.00    0.00    0.01    0.01    0.01    0.01    0.01    0.01    0.01    0.01    0.00    0.04    1.13    2.29    3.06    3.46    3.63    3.66    3.64    3.69
   16 364    67     0     0   100.4   100.1     0.3     0.0    4.13   13.54    0.04    1.72    0.00    2.40    1.36    4.35    0.00    0.00     0.0     1.1    2.28    3.05    3.46    3.62    3.66    3.64    3.68    0.00    0.00    0.01    0.01    0.01    0.01    0.01    0.01    0.01    0.01    0.00    0.04    1.13    2.29    3.06    3.46    3.63    3.66    3.64    3.69
   16 365    68     0     0   100.4   100.2     0.3     0.0    4.16   13.56    0.04    1.72    0.00    2.43    1.38    4.35    0.00    0.00     0.0     1.1    2.27    3.05    3.46    3.62    3.66    3.64    3.68    0.00    0.00    0.01    0.01    0.01    0.01    0.01    0.01    0.01    0.01    0.00    0.04    1.12    2.28    3.06    3.46    3.63    3.66    3.64    3.69
   16 366    69     0     0   100.4   100.2     0.3     0.0    4.16   13.58    0.04    1.72    0.00    2.44    1.39    4.35    0.00    0.00     0.0     1.1    2.27    3.05    3.46    3.62    3.66    3.64    3.68    0.00    0.00    0.01    0.01    0.01    0.01    0.01    0.01    0.01    0.01    0.00    0.03    1.11    2.27    3.06    3.46    3.63    3.66    3.64    3.69
   17 001    70     0     0   100.4   100.2     0.2     0.0    4.16   13.60    0.04    1.72    0.00    2.44    1.40    4.35    0.00    0.00     0.0     1.1    2.26    3.05    3.46    3.62    3.66    3.64    3.68    0.00    0.00    0.01    0.01    0.01    0.01    0.01    0.01    0.00    0.01    0.00    0.03    1.11    2.27    3.06    3.46    3.63    3.66    3.64    3.69
   17 002    71     0     0   100.4   100.2     0.2     0.0    4.16   13.61    0.04    1.72    0.00    2.44    1.42    4.35    0.00    0.00     0.0     1.1    2.26    3.05    3.46    3.62    3.66    3.64    3.68    0.00    0.00    0.01    0.01    0.01    0.01    0.01    0.01    0.00    0.01    0.00    0.03    1.10    2.26    3.06    3.46    3.63    3.66    3.64    3.69
   17 003    72     0     0   100.4   100.2     0.2     0.0    4.16   13.62    0.04    1.72    0.00    2.44    1.43    4.35    0.00    0.00     0.0     1.1    2.25    3.05    3.46    3.62    3.66    3.64    3.68    0.00    0.00    0.01    0.01    0.01    0.01    0.01    0.01    0.00    0.01    0.00    0.03    1.10    2.26    3.06    3.46    3.63    3.66    3.64    3.69
   17 004    73     0     0   100.4   100.2     0.2     0.0    4.16   13.64    0.04    1.72    0.00    2.44    1.44    4.35    0.00    0.00     0.0     1.1    2.25    3.05    3.46    3.62    3.66    3.64    3.68    0.00    0.00    0.01    0.01    0.01    0.01    0.01    0.00    0.00    0.00    0.00    0.03    1.09    2.25    3.06    3.46    3.63    3.66    3.64    3.69
   17 005    74     0     0   100.3   100.2     0.2     0.0    4.16   13.65    0.04    1.72    0.00    2.44    1.46    4.35    0.00    0.00     0.0     1.1    2.24    3.05    3.46    3.62    3.66    3.64    3.68    0.00    0.00    0.01    0.01    0.01    0.00    0.00    0.00    0.00    0.00    0.00    0.03    1.08    2.25    3.06    3.46    3.63    3.66    3.64    3.69
   17 006    75     0     0   100.3   100.2     0.2     0.0    4.16   13.66    0.04    1.72    0.00    2.44    1.47    4.35    0.00    0.00     0.0     1.1    2.24    3.05    3.46    3.62    3.66    3.64    3.68    0.00    0.00    0.01    0.00    0.01    0.00    0.00    0.00    0.00    0.00    0.00    0.02    1.08    2.24    3.06    3.46    3.63    3.66    3.64    3.69
   17 007    76     0     0   100.3   100.2     0.2     0.0    4.16   13.67    0.04    1.72    0.00    2.44    1.48    4.35    0.00    0.00     0.0     1.1    2.23    3.05    3.46    3.62    3.66    3.64    3.69    0.00    0.00    0.00    0.00    0.01    0.00    0.00    0.00    0.00    0.00    0.00    0.02    1.07    2.24    3.06    3.46    3.63    3.66    3.64    3.69
   17 008    77     0     0   100.3   100.2     0.2     0.0    4.16   13.68    0.04    1.72    0.00    2.44    1.49    4.35    0.00    0.00     0.0     1.1    2.23    3.05    3.46    3.62    3.66    3.64    3.69    0.00    0.00    0.00    0.00    0.00    0.00    0.00    0.00    0.00    0.00    0.00    0.02    1.07    2.23    3.06    3.46    3.63    3.66    3.64    3.69
   17 009    78     0     0   100.3   100.1     0.2     0.0    4.16   13.68    0.04    1.72    0.00    2.44    1.51    4.35    0.00    0.00     0.0     1.1    2.22    3.05    3.46    3.62    3.66    3.64    3.69    0.00    0.00    0.00    0.00    0.00    0.00    0.00    0.00    0.00    0.00    0.00    0.02    1.06    2.23    3.06    3.46    3.63    3.66    3.64    3.69
   17 010    79     0     0   100.3   100.1     0.1     0.0    4.16   13.69    0.04    1.72    0.00    2.44    1.52    4.35    0.00    0.00     0.0     1.1    2.22    3.05    3.46    3.62    3.66    3.64    3.69    0.00    0.00    0.00    0.00    0.00    0.00    0.00    0.00    0.00    0.00    0.00    0.02    1.06    2.22    3.06    3.46    3.63    3.66    3.64    3.69
   17 011    80     0     0   100.3   100.1     0.1     0.0    4.16   13.70    0.04    1.72    0.00    2.44    1.53    4.35    0.00    0.00     0.0     1.0    2.21    3.05    3.46    3.62    3.66    3.64    3.69    0.00    0.00    0.00    0.00    0.00    0.00    0.00    0.00    0.00    0.00    0.00    0.02    1.05    2.22    3.06    3.46    3.63    3.66    3.64    3.69
   17 012    81     0     0   100.3   100.1     0.1     0.0    4.16   13.70    0.04    1.72    0.00    2.44    1.54    4.35    0.00    0.00     0.0     1.0    2.20    3.05    3.45    3.63    3.66    3.63    3.68    0.00    0.00    0.00    0.00    0.00    0.00    0.00    0.00    0.00    0.00    0.00    0.02    1.01    2.20    3.06    3.46    3.63    3.67    3.63    3.69
   17 013    82     0     0    99.8    99.7     0.1     0.0    4.16   13.71    0.04    1.72    0.00    2.44    1.55    4.75    0.00    0.00     0.0     0.9    2.10    2.99    3.43    3.62    3.66    3.63    3.68    0.00    0.00    0.00    0.00    0.00    0.00    0.00    0.00    0.00    0.00    0.00    0.02    0.89    2.10    3.00    3.43    3.62    3.66    3.63    3.68
   17 014    83     0     0    99.7    99.6     0.1     0.0    4.16   13.72    0.04    1.72    0.00    2.44    1.56    4.90    0.00    0.00     0.0     0.8    2.06    2.97    3.42    3.61    3.66    3.63    3.68    0.00    0.00    0.00    0.00    0.00    0.00    0.00    0.00    0.00    0.00    0.00    0.01    0.84    2.07    2.97    3.42    3.61    3.66    3.63    3.68
   17 015    84     0     0    99.7    99.5     0.1     0.0    4.16   13.73    0.04    1.72    0.00    2.44    1.57    4.93    0.00    0.00     0.0     0.8    2.05    2.97    3.41    3.61    3.66    3.63    3.68    0.00    0.00    0.00    0.00    0.00    0.00    0.00    0.00    0.00    0.00    0.00    0.01    0.83    2.06    2.97    3.42    3.61    3.66    3.63    3.68
   17 016    85     0     0    99.6    99.5     0.1     0.0    4.16   13.73    0.04    1.72    0.00    2.44    1.58    4.93    0.00    0.00     0.0     0.8    2.05    2.97    3.41    3.61    3.66    3.63    3.68    0.00    0.00    0.00    0.00    0.00    0.00    0.00    0.00    0.00    0.00    0.00    0.01    0.83    2.05    2.97    3.42    3.61    3.66    3.63    3.68
   17 017    86     0     0    99.6    99.5     0.1     0.0    4.16   13.74    0.04    1.72    0.00    2.44    1.59    4.93    0.00    0.00     0.0     0.8    2.04    2.97    3.42    3.61    3.66    3.63    3.68    0.00    0.00    0.00    0.00    0.00    0.00    0.00    0.00    0.00    0.00    0.00    0.01    0.82    2.05    2.97    3.42    3.61    3.66    3.63    3.68
   17 018    87     0     0    99.6    99.5     0.1     0.0    4.16   13.74    0.04    1.72    0.00    2.44    1.61    4.93    0.00    0.00     0.0     0.8    2.04    2.97    3.42    3.61    3.66    3.63    3.68    0.00    0.00    0.00    0.00    0.00    0.00    0.00    0.00    0.00    0.00    0.00    0.01    0.82    2.04    2.97    3.42    3.61    3.66    3.63    3.68
   17 019    88     0     0    99.6    99.5     0.1     0.0    4.16   13.75    0.04    1.72    0.00    2.44    1.62    4.93    0.00    0.00     0.0     0.8    2.03    2.97    3.42    3.61    3.66    3.63    3.68    0.00    0.00    0.00    0.00    0.00    0.00    0.00    0.00    0.00    0.00    0.00    0.01    0.82    2.04    2.97    3.42    3.61    3.66    3.63    3.68
   17 020    89     0     0    99.6    99.5     0.1     0.0    4.16   13.75    0.04    1.72    0.00    2.44    1.63    4.93    0.00    0.00     0.0     0.8    2.03    2.97    3.42    3.61    3.66    3.63    3.68    0.00    0.00    0.00    0.00    0.00    0.00    0.00    0.00    0.00    0.00    0.00    0.01    0.81    2.03    2.97    3.42    3.61    3.66    3.63    3.68
   17 021    90     0     0    99.6    99.5     0.1     0.0    4.16   13.76    0.04    1.72    0.00    2.44    1.64    4.93    0.00    0.00     0.0     0.8    2.02    2.97    3.42    3.61    3.66    3.63    3.68    0.00    0.00    0.00    0.00    0.00    0.00    0.00    0.00    0.00    0.00    0.00    0.01    0.81    2.03    2.97    3.42    3.61    3.66    3.63    3.68
   17 022    91     0     0    99.6    99.5     0.1     0.0    4.16   13.76    0.04    1.72    0.00    2.44    1.65    4.93    0.00    0.00     0.0     0.8    2.02    2.97    3.42    3.61    3.66    3.63    3.68    0.00    0.00    0.00    0.00    0.00    0.00    0.00    0.00    0.00    0.00    0.00    0.01    0.80    2.02    2.97    3.42    3.61    3.66    3.63    3.68
   17 023    92     0     0    99.6    99.5     0.1     0.0    4.16   13.76    0.04    1.72    0.00    2.44    1.66    4.93    0.00    0.00     0.0     0.8    2.01    2.97    3.42    3.61    3.66    3.63    3.68    0.00    0.00    0.00    0.00    0.00    0.00    0.00    0.00    0.00    0.00    0.00    0.01    0.80    2.02    2.97    3.42    3.61    3.66    3.63    3.68
   17 024    93     0     0    99.6    99.5     0.1     0.0    4.16   13.77    0.04    1.72    0.00    2.44    1.67    4.93    0.00    0.00     0.0     0.8    2.01    2.97    3.42    3.61    3.66    3.63    3.68    0.00    0.00    0.00    0.00    0.00    0.00    0.00    0.00    0.00    0.00    0.00    0.01    0.80    2.01    2.97    3.42    3.61    3.66    3.63    3.68
   17 025    94     0     0    99.5    99.5     0.1     0.0    4.16   13.77    0.04    1.72    0.00    2.44    1.68    4.93    0.00    0.00     0.0     0.8    2.00    2.97    3.42    3.61    3.66    3.63    3.68    0.00    0.00    0.00    0.00    0.00    0.00    0.00    0.00    0.00    0.00    0.00    0.01    0.79    2.01    2.97    3.42    3.61    3.66    3.63    3.68
   17 026    95     0     0    99.5    99.5     0.1     0.0    4.16   13.77    0.04    1.72    0.00    2.44    1.68    4.93    0.00    0.00     0.0     0.8    2.00    2.97    3.42    3.61    3.66    3.63    3.68    0.00    0.00    0.00    0.00    0.00    0.00    0.00    0.00    0.00    0.00    0.00    0.01    0.79    2.00    2.97    3.42    3.61    3.66    3.63    3.68
   17 027    96     0     0    99.5    99.5     0.1     0.0    4.16   13.77    0.04    1.72    0.00    2.44    1.69    4.93    0.00    0.00     0.0     0.8    1.99    2.97    3.42    3.61    3.66    3.63    3.68    0.00    0.00    0.00    0.00    0.00    0.00    0.00    0.00    0.00    0.00    0.00    0.01    0.78    2.00    2.97    3.42    3.61    3.66    3.63    3.68
   17 028    97     0     0    99.5    99.5     0.1     0.0    4.16   13.77    0.04    1.72    0.00    2.44    1.70    4.93    0.00    0.00     0.0     0.8    1.99    2.97    3.42    3.61    3.66    3.63    3.68    0.00    0.00    0.00    0.00    0.00    0.00    0.00    0.00    0.00    0.00    0.00    0.01    0.78    1.99    2.97    3.42    3.61    3.66    3.63    3.68
   17 029    98     0     0    99.5    99.5     0.1     0.0    4.16   13.78    0.04    1.72    0.00    2.44    1.71    4.93    0.00    0.00     0.0     0.8    1.98    2.97    3.42    3.61    3.66    3.63    3.68    0.00    0.00    0.00    0.00    0.00    0.00    0.00    0.00    0.00    0.00    0.00    0.01    0.78    1.99    2.97    3.42    3.61    3.66    3.63    3.68
   17 030    99     0     0    99.5    99.5     0.1     0.0    4.16   13.78    0.04    1.72    0.00    2.44    1.72    4.93    0.00    0.00     0.0     0.8    1.97    2.96    3.41    3.61    3.66    3.64    3.68    0.00    0.00    0.00    0.00    0.00    0.00    0.00    0.00    0.00    0.00    0.00    0.01    0.76    1.97    2.96    3.41    3.61    3.66    3.64    3.68
   17 031   100     0     0    99.5    99.4     0.1     0.0    4.16   13.78    0.04    1.72    0.00    2.44    1.73    4.93    0.00    0.00     0.0     0.7    1.95    2.95    3.41    3.61    3.66    3.63    3.68    0.00    0.00    0.00    0.00    0.00    0.00    0.00    0.00    0.00    0.00    0.00    0.01    0.70    1.95    2.95    3.42    3.62    3.67    3.63    3.68
   17 032   101     0     0    98.7    98.7     0.0     0.0    4.16   13.78    0.04    1.72    0.00    2.44    1.74    5.71    0.00    0.00     0.0     0.6    1.80    2.82    3.33    3.57    3.65    3.63    3.67    0.00    0.00    0.00    0.00    0.00    0.00    0.00    0.00    0.00    0.00    0.00    0.01    0.58    1.80    2.82    3.33    3.57    3.65    3.63    3.67
   17 033   102     0     0    98.4    98.4     0.0     0.0    4.16   13.79    0.04    1.72    0.00    2.44    1.74    5.98    0.00    0.00     0.0     0.5    1.74    2.77    3.31    3.56    3.65    3.62    3.67    0.00    0.00    0.00    0.00    0.00    0.00    0.00    0.00    0.00    0.00    0.00    0.01    0.53    1.74    2.77    3.31    3.56    3.65    3.63    3.67
   17 034   103     0     0    98.4    98.4     0.0     0.0    4.16   13.79    0.04    1.72    0.00    2.44    1.75    5.98    0.00    0.00     0.0     0.5    1.72    2.76    3.31    3.56    3.64    3.62    3.67    0.00    0.00    0.00    0.00    0.00    0.00    0.00    0.00    0.00    0.00    0.00    0.00    0.52    1.72    2.76    3.31    3.56    3.64    3.62    3.67
   17 035   104    40     1   108.6    98.4    10.2    29.8    4.16   13.79    0.04    1.72    0.00    2.44    1.76    5.98    0.00    0.00     0.0     0.5    1.70    2.75    3.30    3.56    3.64    3.63    3.67   15.60    0.08    0.00    0.00    0.00    0.00    0.00    0.00    0.00    0.00   15.60    0.09    0.51    1.70    2.75    3.31    3.56    3.64    3.63    3.67
   17 036   105    40     1   115.6    98.8    16.8    20.9    4.16   14.25    0.04    1.72    0.00    2.44    3.62    5.98    0.00    0.69     0.0     0.5    1.70    2.75    3.30    3.56    3.64    3.63    3.67   25.75    0.15    0.00    0.00    0.00    0.00    0.00    0.00    0.00    0.00   26.44    0.16    0.51    1.70    2.75    3.31    3.56    3.64    3.63    3.67
   17 037   106    40     1   120.7    99.6    21.1    14.5    4.17   15.11    0.04    1.72    0.00    2.44    4.94    5.98    0.00    1.89     0.0     0.5    1.69    2.75    3.30    3.56    3.64    3.63    3.67   32.28    0.19    0.00    0.00    0.00    0.00    0.00    0.00    0.00    0.00   34.18    0.21    0.51    1.69    2.75    3.31    3.56    3.64    3.63    3.67
   17 038   107    40     1   124.9   100.7    24.2    10.0    4.17   16.28    0.04    1.72    0.00    2.44    5.21    5.98    0.00    3.63     0.0     0.5    1.69    2.75    3.30    3.56    3.64    3.63    3.67   37.05    0.22    0.00    0.00    0.00    0.00    0.00    0.00    0.00    0.00   40.68    0.25    0.51    1.69    2.75    3.31    3.56    3.64    3.63    3.67
   17 039   108    40     1   128.0   102.1    25.9     6.9    4.17   17.65    0.04    1.72    0.00    2.45    5.34    5.98    0.00    5.67     0.0     0.5    1.69    2.75    3.30    3.56    3.64    3.63    3.67   39.61    0.24    0.00    0.00    0.00    0.00    0.00    0.00    0.00    0.00   45.29    0.28    0.50    1.69    2.75    3.31    3.56    3.64    3.63    3.67
   17 040   109    40     1   129.9   103.4    26.4     4.7    4.17   19.10    0.05    1.72    0.00    2.45    5.55    5.98    0.00    7.79     0.1     0.5    1.69    2.75    3.30    3.56    3.64    3.63    3.67   40.43    0.25    0.00    0.00    0.00    0.00    0.00    0.00    0.00    0.00   48.23    0.30    0.50    1.69    2.75    3.31    3.56    3.64    3.63    3.67
   17 041   110    40     1   131.2   104.8    26.4     3.4    4.17   20.49    0.05    1.72    0.00    2.45    5.55    5.98    0.00    9.91     0.1     0.5    1.69    2.75    3.30    3.56    3.64    3.63    3.67   40.38    0.25    0.00    0.00    0.00    0.00    0.00    0.00    0.00    0.00   50.29    0.31    0.50    1.69    2.75    3.31    3.56    3.64    3.63    3.67
   17 042   111    40     1   132.1   106.1    26.0     2.5    4.17   21.77    0.05    1.72    0.00    2.45    5.55    5.98    0.00   11.84     0.1     0.5    1.69    2.75    3.30    3.56    3.64    3.63    3.67   39.75    0.25    0.00    0.00    0.00    0.00    0.00    0.00    0.00    0.00   51.59    0.32    0.50    1.69    2.75    3.31    3.56    3.64    3.63    3.67
   17 043   112    40     1   132.7   107.3    25.4     1.9    4.17   22.96    0.05    1.72    0.00    2.45    5.55    5.98    0.00   13.66     0.1     0.5    1.69    2.75    3.30    3.56    3.64    3.63    3.67   38.84    0.24    0.00    0.00    0.00    0.00    0.00    0.00    0.00    0.00   52.50    0.33    0.50    1.69    2.75    3.31    3.56    3.64    3.63    3.67
   17 044   113    40     1   133.1   108.3    24.7     1.5    4.17   24.03    0.05    1.72    0.00    2.45    5.55    5.98    0.00   15.28     0.1     0.5    1.69    2.75    3.30    3.56    3.64    3.63    3.67   37.84    0.24    0.00    0.00    0.00    0.00    0.00    0.00    0.00    0.00   53.12    0.34    0.50    1.69    2.75    3.31    3.56    3.64    3.63    3.67
   17 045   114    40     1   133.4   109.3    24.1     1.2    4.17   25.02    0.05    1.72    0.00    2.45    5.59    5.98    0.00   16.76     0.1     0.5    1.69    2.75    3.30    3.56    3.64    3.63    3.67   36.82    0.23    0.00    0.00    0.00    0.00    0.00    0.00    0.00    0.00   53.58    0.34    0.50    1.69    2.75    3.31    3.56    3.64    3.63    3.67
   17 046   115    40     1   133.6   110.0    23.6     0.9    4.17   25.76    0.05    1.72    0.00    2.45    5.62    5.98    0.00   17.88     0.1     0.5    1.68    2.75    3.30    3.56    3.64    3.63    3.67   36.12    0.21    0.00    0.00    0.00    0.00    0.00    0.00    0.00    0.00   54.00    0.33    0.50    1.68    2.75    3.31    3.56    3.64    3.63    3.67
   17 047   116    40     1   133.8   110.6    23.2     0.7    4.17   26.32    0.05    1.72    0.00    2.45    5.65    5.98    0.00   18.71     0.1     0.5    1.67    2.75    3.30    3.56    3.64    3.63    3.67   35.60    0.20    0.00    0.00    0.00    0.00    0.00    0.00    0.00    0.00   54.31    0.32    0.49    1.67    2.75    3.31    3.56    3.64    3.63    3.67
   17 048   117    40     1   133.9   111.6    22.3     0.5    4.17   27.42    0.05    1.72    0.00    2.45    5.74    5.98    0.00   20.32     0.1     0.5    1.66    2.75    3.31    3.56    3.64    3.63    3.67   34.17    0.18    0.00    0.00    0.00    0.00    0.00    0.00    0.00    0.00   54.49    0.31    0.49    1.66    2.75    3.31    3.56    3.64    3.63    3.67
   17 049   118    40     1   133.4   112.5    20.9     0.3    4.17   28.67    0.05    1.72    0.00    2.45    6.34    5.98    0.00   21.80     0.1     0.5    1.66    2.75    3.31    3.56    3.64    3.63    3.67   31.97    0.17    0.00    0.00    0.00    0.00    0.00    0.00    0.00    0.00   53.77    0.31    0.49    1.66    2.75    3.31    3.56    3.64    3.63    3.67
   17 050   119    40     1   133.3   113.6    19.6     0.2    4.17   29.87    0.05    1.72    0.00    2.45    6.59    5.98    0.00   23.44     0.1     0.5    1.66    2.75    3.31    3.56    3.64    3.63    3.67   30.10    0.16    0.00    0.00    0.00    0.00    0.00    0.00    0.00    0.00   53.53    0.31    0.49    1.66    2.75    3.31    3.56    3.64    3.63    3.67
   17 051   120    40     1   133.1   114.6    18.5     0.1    4.17   30.99    0.05    1.72    0.00    2.45    6.81    5.98    0.00   24.97     0.2     0.5    1.66    2.75    3.31    3.56    3.64    3.63    3.67   28.30    0.15    0.00    0.00    0.00    0.00    0.00    0.00    0.00    0.00   53.28    0.31    0.49    1.66    2.75    3.31    3.56    3.64    3.63    3.67
   17 052   121    40     1   132.9   115.6    17.3     0.1    4.17   32.11    0.05    1.72    0.00    2.45    6.94    6.08    0.00   23.20     1.8     0.6    1.65    2.74    3.30    3.56    3.64    3.62    3.67   26.56    0.14    0.00    0.00    0.00    0.00    0.00    0.00    0.00    0.00   49.76    1.92    0.59    1.65    2.74    3.30    3.56    3.64    3.62    3.67
   17 053   122    40     1   132.2   116.0    16.2     0.1    4.18   33.07    0.05    1.72    0.00    2.45    7.39    6.40    0.00   23.26     2.2     0.7    1.59    2.68    3.27    3.55    3.63    3.62    3.66   24.79    0.14    0.00    0.00    0.00    0.00    0.00    0.00    0.00    0.00   48.05    2.35    0.70    1.59    2.68    3.27    3.55    3.63    3.62    3.66
   17 054   123    40     1   131.8   116.9    14.9     0.0    4.20   34.22    0.05    1.72    0.00    2.48    7.70    6.47    0.00   24.78     2.2     0.7    1.58    2.67    3.27    3.54    3.63    3.62    3.66   22.82    0.13    0.00    0.00    0.00    0.00    0.00    0.00    0.00    0.00   47.60    2.34    0.72    1.58    2.67    3.27    3.54    3.63    3.62    3.66
   17 055   124    40     1   131.4   117.9    13.5     0.0    4.28   35.46    0.05    1.78    0.00    2.50    8.15    6.47    0.00   26.32     2.2     0.7    1.58    2.67    3.27    3.54    3.63    3.62    3.66   20.58    0.10    0.01    0.00    0.00    0.00    0.00    0.00    0.00    0.00   46.90    2.30    0.72    1.58    2.67    3.27    3.55    3.63    3.62    3.67
   17 056   125    40     1   130.5   118.5    12.0     0.0    4.37   36.63    0.05    1.84    0.00    2.53    9.09    6.47    0.00   27.37     2.2     0.7    1.57    2.66    3.27    3.54    3.63    3.62    3.66   18.15    0.06    0.01    0.01    0.01    0.01    0.01    0.01    0.01    0.01   45.52    2.24    0.72    1.58    2.67    3.27    3.55    3.64    3.62    3.67
   17 057   126    40     1   129.9   119.1    10.8     0.0    4.45   37.63    0.05    1.88    0.00    2.56    9.72    6.47    0.00   28.48     2.1     0.7    1.56    2.64    3.27    3.54    3.63    3.62    3.66   16.30    0.03    0.01    0.01    0.01    0.01    0.01    0.01    0.01    0.01   44.79    2.12    0.72    1.57    2.65    3.28    3.55    3.64    3.63    3.67
   17 058   127    40     1   129.7   119.6    10.0     0.0    4.50   38.39    0.06    1.91    0.00    2.60    9.99    6.47    0.00   29.55     2.0     0.7    1.54    2.62    3.27    3.54    3.63    3.62    3.66   15.09    0.02    0.01    0.01    0.01    0.01    0.01    0.01    0.01    0.01   44.64    2.01    0.71    1.55    2.63    3.28    3.55    3.64    3.63    3.67
   17 059   128    40     1   129.4   119.8     9.6     0.0    4.53   38.84    0.06    1.91    0.00    2.62   10.20    6.56    0.00   19.35     6.9     1.3    1.53    2.58    3.26    3.55    3.63    3.61    3.66   14.44    0.01    0.01    0.01    0.01    0.01    0.01    0.01    0.01    0.01   33.79    6.90    1.32    1.54    2.59    3.27    3.56    3.64    3.62    3.67
   17 060   129    40     1   127.2   118.8     8.3     0.0    4.53   39.26    0.06    1.91    0.00    2.62   12.41    6.56    0.00   14.83     7.7     2.4    1.59    2.55    3.27    3.56    3.64    3.63    3.66   12.49    0.01    0.01    0.01    0.01    0.01    0.01    0.01    0.01    0.01   27.33    7.76    2.42    1.60    2.56    3.28    3.56    3.65    3.64    3.67
   17 061   130    40     1   126.6   118.8     7.8     0.0    4.53   39.60    0.06    1.91    0.00    2.63   12.91    6.65    0.00   13.64     7.8     3.1    1.69    2.54    3.27    3.57    3.65    3.63    3.67   11.71    0.01    0.01    0.01    0.01    0.01    0.01    0.01    0.01    0.01   25.35    7.81    3.14    1.70    2.54    3.28    3.58    3.66    3.63    3.68
   17 062   131    40     1   124.6   117.8     6.8     0.0    4.54   40.09    0.06    1.91    0.00    2.63   14.09    7.47    0.00   13.49     7.5     3.2    1.74    2.42    3.16    3.50    3.61    3.62    3.66   10.20    0.01    0.01    0.01    0.01    0.01    0.01    0.01    0.01    0.01   23.69    7.47    3.25    1.74    2.43    3.16    3.51    3.62    3.62    3.67
   17 063   132    40     1   123.1   117.1     6.0     0.0    4.54   40.52    0.07    1.91    0.00    2.64   15.23    7.82    0.00   13.32     7.2     3.3    1.76    2.36    3.10    3.48    3.60    3.61    3.66    8.92    0.01    0.01    0.01    0.01    0.01    0.01    0.01    0.01    0.01   22.24    7.22    3.28    1.76    2.37    3.11    3.48    3.61    3.62    3.66
   17 064   133    40     1   122.2   116.9     5.4     0.0    4.56   40.93    0.07    1.91    0.00    2.65   16.02    7.90    0.00   13.47     7.0     3.2    1.75    2.34    3.09    3.47    3.60    3.61    3.65    7.95    0.01    0.01    0.01    0.01    0.01    0.01    0.01    0.01    0.01   21.42    7.05    3.20    1.76    2.35    3.10    3.48    3.61    3.61    3.66
   17 065   134    40     1   120.1   115.8     4.3     0.0    4.59   41.29    0.07    1.92    0.00    2.67   18.15    7.90    0.00   12.05     7.0     3.1    1.74    2.31    3.09    3.47    3.60    3.62    3.65    6.36    0.00    0.01    0.01    0.01    0.01    0.01    0.01    0.01    0.01   18.41    6.97    3.14    1.74    2.32    3.09    3.47    3.61    3.63    3.66
   17 066   135    40     1   118.7   115.0     3.6     0.0    4.62   41.59    0.07    1.94    0.00    2.69   19.63    7.90    0.00   11.36     6.8     3.1    1.73    2.30    3.08    3.47    3.60    3.62    3.66    5.22    0.00    0.01    0.01    0.01    0.01    0.01    0.01    0.01    0.01   16.59    6.78    3.10    1.73    2.30    3.09    3.47    3.61    3.63    3.66
   17 067   136    40     1   117.1   114.1     3.0     0.0    4.65   41.83    0.07    1.95    0.00    2.70   21.10    7.99    0.00    8.47     7.2     3.6    1.78    2.28    3.07    3.47    3.60    3.61    3.66    4.27    0.00    0.01    0.01    0.01    0.01    0.01    0.01    0.01    0.01   12.74    7.20    3.66    1.79    2.29    3.08    3.47    3.61    3.62    3.66
   17 068   137    40     1   116.3   113.6     2.7     0.0    4.68   41.99    0.08    1.96    0.00    2.72   21.82    8.07    0.00    4.61     7.0     5.6    2.37    2.34    3.09    3.49    3.61    3.61    3.65    3.82    0.00    0.01    0.01    0.01    0.01    0.01    0.01    0.01    0.01    8.43    7.01    5.64    2.38    2.35    3.10    3.49    3.62    3.61    3.66
   17 069   138    40     1   113.7   111.2     2.5     0.0    4.71   42.11    0.09    1.97    0.00    2.74   22.45   10.10    0.00    3.99     6.1     5.3    2.70    2.34    2.87    3.31    3.51    3.57    3.63    3.41    0.00    0.01    0.01    0.01    0.01    0.01    0.01    0.01    0.01    7.40    6.10    5.33    2.71    2.35    2.88    3.32    3.52    3.58    3.64
   17 070   139    40     1   111.6   109.7     1.9     0.0    4.72   42.26    0.09    1.97    0.00    2.75   23.71   10.93    0.00    3.37     5.6     5.0    2.82    2.34    2.79    3.25    3.48    3.56    3.62    2.59    0.00    0.01    0.01    0.01    0.01    0.01    0.01    0.01    0.01    5.96    5.56    5.04    2.83    2.35    2.79    3.26    3.49    3.57    3.63
   17 071   140    40     1   109.5   108.0     1.4     0.0    4.72   42.36    0.09    1.97    0.00    2.76   25.51   11.26    0.00    2.68     5.0     4.7    2.82    2.31    2.74    3.23    3.47    3.56    3.62    1.83    0.00    0.01    0.01    0.01    0.01    0.01    0.01    0.01    0.01    4.51    4.98    4.73    2.82    2.32    2.75    3.23    3.47    3.56    3.63
   17 072   141    40     1   108.1   106.9     1.2     0.0    4.73   42.45    0.09    1.97    0.00    2.76   26.83   11.35    0.00    2.49     4.4     4.4    2.78    2.26    2.71    3.22    3.46    3.56    3.62    1.51    0.00    0.01    0.01    0.01    0.01    0.01    0.01    0.01    0.01    4.00    4.45    4.45    2.78    2.26    2.72    3.23    3.47    3.56    3.63
   17 073   142    40     1   106.7   105.7     1.1     0.0    4.74   42.54    0.09    1.97    0.00    2.77   28.13   11.37    0.00    2.47     3.9     4.1    2.69    2.18    2.68    3.22    3.46    3.56    3.62    1.32    0.00    0.01    0.01    0.01    0.01    0.01    0.01    0.01    0.01    3.79    3.90    4.15    2.70    2.19    2.68    3.22    3.47    3.56    3.63
   17 074   143    40     1   105.4   104.4     1.0     0.0    4.74   42.61    0.10    1.97    0.00    2.77   29.49   11.37    0.00    2.53     3.3     3.8    2.58    2.09    2.63    3.22    3.46    3.56    3.62    1.20    0.00    0.01    0.00    0.00    0.00    0.01    0.01    0.01    0.01    3.73    3.34    3.79    2.58    2.09    2.63    3.22    3.47    3.56    3.63
   17 075   144    40     1   104.1   103.2     0.9     0.0    4.74   42.67    0.10    1.97    0.00    2.77   30.76   11.37    0.00    2.62     2.9     3.4    2.44    1.99    2.57    3.22    3.46    3.56    3.62    1.12    0.00    0.00    0.00    0.00    0.00    0.01    0.01    0.00    0.01    3.74    2.88    3.41    2.45    1.99    2.57    3.22    3.47    3.56    3.63
   17 076   145    40     1   102.9   102.0     0.9     0.0    4.75   42.72    0.10    1.97    0.00    2.78   32.02   11.37    0.00    2.71     2.5     3.0    2.28    1.88    2.48    3.22    3.46    3.56    3.62    1.06    0.00    0.00    0.00    0.00    0.00    0.00    0.01    0.00    0.01    3.77    2.47    3.00    2.29    1.88    2.48    3.22    3.47    3.56    3.63
   17 077   146    40     1   101.6   100.8     0.8     0.0    4.80   42.78    0.10    1.98    0.00    2.81   33.27   11.37    0.00    2.80     2.1     2.6    2.11    1.75    2.36    3.22    3.46    3.56    3.62    0.99    0.00    0.00    0.00    0.00    0.00    0.01    0.01    0.01    0.01    3.79    2.13    2.61    2.11    1.76    2.37    3.22    3.47    3.56    3.63
   17 078   147    40     1    99.7    99.1     0.6     0.0    4.86   42.84    0.10    2.02    0.00    2.84   35.23   11.37    0.00    2.02     1.9     2.2    1.92    1.62    2.21    3.21    3.46    3.56    3.62    0.60    0.00    0.01    0.01    0.01    0.01    0.01    0.01    0.01    0.01    2.62    1.86    2.25    1.93    1.63    2.22    3.22    3.47    3.57    3.63
   17 079   148    40     1    98.1    97.6     0.5     0.0    4.96   42.89    0.10    2.06    0.00    2.89   36.88   11.37    0.00    1.47     1.6     1.9    1.75    1.50    2.06    3.19    3.46    3.56    3.62    0.34    0.00    0.01    0.01    0.01    0.01    0.01    0.01    0.01    0.01    1.81    1.61    1.94    1.76    1.51    2.07    3.21    3.48    3.57    3.63
   17 080   149    40     1    96.9    96.3     0.5     0.0    5.08   42.94    0.10    2.12    0.00    2.96   38.20   11.37    0.00    1.23     1.4     1.6    1.58    1.38    1.91    3.17    3.47    3.56    3.62    0.22    0.00    0.02    0.01    0.01    0.01    0.02    0.02    0.01    0.01    1.45    1.37    1.66    1.60    1.39    1.92    3.18    3.48    3.57    3.64
   17 081   150    40     1    95.5    94.9     0.6     0.0    5.21   42.99    0.11    2.18    0.00    3.03   39.62   11.37    0.00    0.89     1.2     1.4    1.42    1.25    1.74    3.11    3.47    3.56    3.62    0.10    0.00    0.02    0.02    0.02    0.02    0.02    0.02    0.02    0.02    0.98    1.16    1.41    1.43    1.27    1.75    3.12    3.49    3.58    3.64
   17 082   151    40     1    94.0    93.5     0.6     0.0    5.34   43.04    0.11    2.24    0.00    3.10   41.14   11.37    0.00    0.41     1.0     1.2    1.25    1.12    1.56    3.00    3.47    3.56    3.63    0.00    0.00    0.02    0.02    0.02    0.02    0.02    0.02    0.02    0.02    0.41    0.97    1.19    1.27    1.14    1.58    3.02    3.49    3.58    3.64
   17 083   152    40     1    92.9    92.3     0.6     0.0    5.46   43.09    0.12    2.29    0.00    3.17   42.34   11.37    0.00    0.22     0.8     1.0    1.10    1.00    1.40    2.88    3.47    3.56    3.63    0.00    0.00    0.02    0.02    0.02    0.02    0.02    0.03    0.02    0.02    0.22    0.80    0.99    1.12    1.02    1.42    2.90    3.50    3.58    3.65
   17 084   153    40     1    91.8    91.2     0.6     0.0    5.56   43.15    0.12    2.32    0.00    3.24   43.48   11.37    0.00    0.14     0.7     0.8    0.96    0.88    1.24    2.72    3.47    3.56    3.63    0.00    0.00    0.02    0.02    0.02    0.02    0.03    0.03    0.02    0.02    0.14    0.65    0.83    0.98    0.90    1.26    2.75    3.50    3.59    3.65
   17 085   154    40     1    90.8    90.2     0.6     0.0    5.64   43.20    0.13    2.35    0.00    3.30   44.54   11.37    0.00    0.10     0.5     0.7    0.83    0.77    1.09    2.55    3.47    3.57    3.63    0.00    0.00    0.02    0.02    0.02    0.02    0.03    0.03    0.02    0.02    0.10    0.53    0.68    0.85    0.79    1.10    2.57    3.50    3.59    3.65
   17 086   155    40     1    89.9    89.2     0.6     0.0    5.70   43.26    0.13    2.36    0.00    3.34   45.54   11.37    0.00    0.09     0.4     0.5    0.71    0.67    0.94    2.34    3.48    3.57    3.63    0.00    0.00    0.02    0.02    0.02    0.02    0.02    0.03    0.02    0.02    0.09    0.44    0.56    0.73    0.69    0.96    2.37    3.50    3.59    3.66
   17 087   156    40     1    89.0    88.4     0.6     0.0    5.77   43.31    0.14    2.38    0.00    3.40   46.44   11.37    0.00    0.08     0.4     0.4    0.61    0.58    0.82    2.13    3.48    3.57    3.63    0.00    0.00    0.02    0.02    0.02    0.02    0.02    0.03    0.02    0.02    0.08    0.36    0.47    0.63    0.60    0.83    2.16    3.51    3.59    3.66
   17 088   157    40     1    88.2    87.6     0.6     0.0    5.84   43.37    0.14    2.39    0.00    3.45   47.26   11.37    0.00    0.08     0.3     0.4    0.52    0.50    0.71    1.92    3.48    3.57    3.64    0.00    0.00    0.02    0.02    0.02    0.02    0.02    0.03    0.02    0.02    0.08    0.30    0.39    0.54    0.52    0.72    1.94    3.51    3.60    3.66
   17 089   158    40     1    87.6    86.9     0.7     0.0    5.94   43.43    0.14    2.40    0.00    3.54   48.00   11.37    0.00    0.09     0.3     0.3    0.45    0.43    0.61    1.70    3.48    3.57    3.64    0.00    0.00    0.02    0.02    0.02    0.02    0.02    0.03    0.03    0.02    0.09    0.26    0.33    0.47    0.45    0.62    1.72    3.51    3.60    3.66
   17 090   159    40     1    87.0    86.3     0.7     0.0    6.05   43.49    0.15    2.41    0.00    3.64   48.70   11.37    0.00    0.09     0.2     0.3    0.38    0.37    0.52    1.48    3.47    3.58    3.64    0.00    0.00    0.02    0.02    0.02    0.02    0.02    0.03    0.03    0.03    0.09    0.22    0.29    0.40    0.39    0.53    1.50    3.51    3.60    3.67
   17 091   160    40     1    86.5    85.7     0.8     0.0    6.22   43.56    0.15    2.42    0.00    3.80   49.36   11.37    0.00    0.09     0.2     0.2    0.33    0.31    0.44    1.28    3.44    3.58    3.64    0.01    0.00    0.03    0.03    0.03    0.02    0.02    0.04    0.03    0.03    0.10    0.20    0.26    0.36    0.34    0.46    1.30    3.47    3.61    3.67
   17 092   161    40     1    86.0    85.2     0.9     0.0    6.41   43.64    0.16    2.44    0.00    3.98   49.99   11.37    0.00    0.09     0.2     0.2    0.29    0.27    0.38    1.10    3.35    3.58    3.65    0.01    0.00    0.03    0.03    0.03    0.02    0.03    0.04    0.03    0.03    0.10    0.17    0.24    0.32    0.30    0.40    1.13    3.40    3.61    3.68
   17 093   162    40     1    85.6    84.6     0.9     0.0    6.63   43.74    0.16    2.45    0.00    4.19   50.63   11.37    0.00    0.09     0.2     0.2    0.26    0.24    0.33    0.94    3.23    3.58    3.65    0.01    0.00    0.04    0.03    0.03    0.03    0.03    0.04    0.04    0.04    0.11    0.16    0.23    0.29    0.27    0.35    0.97    3.27    3.62    3.68
   17 094   163    40     1    85.1    84.1     1.0     0.0    6.85   43.85    0.17    2.46    0.00    4.39   51.27   11.37    0.00    0.09     0.1     0.2    0.23    0.21    0.28    0.81    3.06    3.59    3.65    0.01    0.00    0.04    0.04    0.04    0.03    0.03    0.05    0.04    0.04    0.10    0.14    0.22    0.27    0.25    0.31    0.84    3.11    3.63    3.69
   17 095   164    40     1    84.7    83.6     1.1     0.0    7.05   43.97    0.17    2.47    0.00    4.58   51.91   11.37    0.00    0.09     0.1     0.2    0.21    0.18    0.24    0.69    2.86    3.59    3.66    0.00    0.00    0.04    0.04    0.04    0.03    0.03    0.05    0.04    0.04    0.09    0.13    0.21    0.25    0.22    0.28    0.72    2.91    3.64    3.70
   17 096   165    40     1    84.2    83.1     1.1     0.0    7.22   44.08    0.18    2.47    0.00    4.74   52.52   11.37    0.00    0.08     0.1     0.2    0.19    0.16    0.21    0.59    2.66    3.60    3.66    0.00    0.00    0.04    0.04    0.04    0.03    0.03    0.04    0.05    0.04    0.08    0.12    0.20    0.23    0.20    0.24    0.62    2.70    3.64    3.70
   17 097   166    40     1    83.8    82.7     1.1     0.0    7.34   44.19    0.18    2.48    0.00    4.86   53.10   11.37    0.00    0.08     0.1     0.1    0.17    0.14    0.18    0.50    2.45    3.60    3.66    0.00    0.00    0.04    0.04    0.04    0.03    0.03    0.04    0.05    0.04    0.08    0.12    0.18    0.21    0.18    0.21    0.53    2.49    3.65    3.71
   17 098   167    40     1    83.3    82.3     1.0     0.0    7.44   44.28    0.18    2.49    0.00    4.96   53.64   11.37    0.00    0.07     0.1     0.1    0.15    0.13    0.16    0.42    2.24    3.60    3.67    0.00    0.00    0.04    0.03    0.03    0.03    0.03    0.04    0.05    0.04    0.07    0.11    0.17    0.19    0.16    0.18    0.45    2.28    3.65    3.71
   17 099   168    40     1    82.9    81.9     1.0     0.0    7.54   44.38    0.19    2.49    0.00    5.05   54.16   11.37    0.00    0.07     0.1     0.1    0.14    0.11    0.13    0.36    2.03    3.61    3.67    0.00    0.00    0.04    0.03    0.03    0.03    0.03    0.04    0.05    0.04    0.07    0.10    0.16    0.17    0.15    0.16    0.38    2.07    3.65    3.71
   17 100   169    40     1    82.5    81.5     1.0     0.0    7.66   44.48    0.19    2.49    0.00    5.17   54.64   11.37    0.00    0.07     0.1     0.1    0.13    0.10    0.12    0.30    1.82    3.61    3.68    0.00    0.00    0.04    0.03    0.03    0.03    0.02    0.03    0.05    0.04    0.08    0.10    0.16    0.16    0.13    0.14    0.33    1.86    3.66    3.72
   17 101   170    40     1    82.2    81.2     1.0     0.0    7.82   44.58    0.20    2.49    0.00    5.33   55.10   11.37    0.00    0.07     0.1     0.1    0.12    0.09    0.10    0.26    1.62    3.61    3.68    0.01    0.00    0.04    0.03    0.03    0.03    0.03    0.03    0.05    0.04    0.08    0.09    0.15    0.15    0.12    0.13    0.29    1.66    3.66    3.72
   17 102   171    40     1    81.9    80.9     1.1     0.0    7.99   44.69    0.20    2.49    0.00    5.50   55.55   11.37    0.00    0.07     0.1     0.1    0.11    0.08    0.09    0.23    1.44    3.60    3.68    0.01    0.00    0.04    0.03    0.03    0.03    0.03    0.03    0.05    0.04    0.08    0.09    0.15    0.15    0.12    0.12    0.25    1.47    3.64    3.73
   17 103   172    40     1    81.7    80.6     1.1     0.0    8.15   44.80    0.20    2.49    0.00    5.66   55.98   11.37    0.00    0.08     0.1     0.1    0.11    0.08    0.08    0.20    1.27    3.58    3.69    0.01    0.00    0.04    0.04    0.03    0.03    0.03    0.03    0.05    0.05    0.09    0.09    0.15    0.14    0.11    0.11    0.22    1.31    3.63    3.73
   17 104   173    40     1    81.4    80.3     1.1     0.0    8.31   44.92    0.21    2.49    0.00    5.83   56.41   11.37    0.00    0.08     0.1     0.1    0.10    0.07    0.07    0.17    1.12    3.55    3.69    0.02    0.00    0.04    0.04    0.04    0.03    0.03    0.03    0.05    0.05    0.09    0.09    0.15    0.14    0.11    0.10    0.20    1.16    3.60    3.74
   17 105   174    40     1    81.1    80.0     1.1     0.0    8.45   45.03    0.21    2.49    0.00    5.97   56.84   11.37    0.00    0.08     0.1     0.1    0.10    0.07    0.07    0.15    0.99    3.51    3.70    0.02    0.00    0.04    0.04    0.04    0.03    0.03    0.03    0.05    0.05    0.10    0.09    0.15    0.13    0.10    0.10    0.18    1.02    3.55    3.74
   17 106   175    40     1    80.8    79.7     1.1     0.0    8.57   45.14    0.21    2.49    0.00    6.08   57.29   11.37    0.00    0.08     0.1     0.1    0.10    0.07    0.06    0.13    0.87    3.45    3.70    0.02    0.00    0.04    0.03    0.03    0.03    0.03    0.03    0.05    0.05    0.10    0.09    0.15    0.13    0.10    0.09    0.16    0.90    3.50    3.75
   17 107   176    40     1    80.4    79.3     1.1     0.0    8.69   45.25    0.22    2.49    0.00    6.19   57.75   11.37    0.00    0.07     0.1     0.1    0.09    0.06    0.06    0.12    0.76    3.38    3.70    0.01    0.00    0.04    0.03    0.03    0.03    0.03    0.03    0.04    0.05    0.08    0.09    0.15    0.13    0.10    0.08    0.14    0.79    3.42    3.75
   17 108   177    40     1    80.0    79.0     1.0     0.0    8.78   45.35    0.22    2.49    0.00    6.28   58.23   11.37    0.00    0.03     0.1     0.1    0.09    0.06    0.05    0.10    0.66    3.30    3.71    0.00    0.00    0.04    0.03    0.03    0.03    0.02    0.03    0.04    0.05    0.03    0.09    0.15    0.12    0.09    0.08    0.13    0.69    3.34    3.75
   17 109   178    40     1    79.6    78.6     1.0     0.0    8.83   45.44    0.22    2.49    0.00    6.34   58.71   11.37    0.00    0.02     0.1     0.1    0.09    0.06    0.05    0.09    0.58    3.22    3.71    0.00    0.00    0.03    0.03    0.03    0.02    0.02    0.02    0.04    0.04    0.02    0.07    0.14    0.12    0.08    0.07    0.11    0.60    3.26    3.76
   17 110   179    40     1    79.1    78.3     0.9     0.0    8.84   45.51    0.23    2.50    0.00    6.35   59.17   11.37    0.00    0.01     0.1     0.1    0.08    0.05    0.04    0.08    0.50    3.13    3.72    0.00    0.00    0.03    0.03    0.02    0.02    0.02    0.02    0.03    0.04    0.01    0.05    0.14    0.11    0.08    0.06    0.09    0.52    3.17    3.76
   17 111   180    40     1    78.7    77.9     0.8     0.0    8.84   45.58    0.23    2.50    0.00    6.35   59.61   11.37    0.00    0.00     0.0     0.1    0.08    0.05    0.04    0.07    0.44    3.05    3.72    0.00    0.00    0.03    0.02    0.02    0.01    0.01    0.02    0.03    0.04    0.00    0.03    0.13    0.10    0.07    0.05    0.08    0.46    3.08    3.76
   17 112   181    40     1    78.3    77.6     0.7     0.0    8.84   45.63    0.23    2.50    0.00    6.35   60.02   11.37    0.00    0.00     0.0     0.1    0.07    0.04    0.03    0.06    0.39    2.96    3.72    0.00    0.00    0.02    0.02    0.02    0.01    0.01    0.01    0.03    0.04    0.00    0.02    0.12    0.09    0.06    0.05    0.07    0.40    2.99    3.76
   17 113   182    40     1    77.9    77.2     0.6     0.0    8.84   45.68    0.23    2.50    0.00    6.35   60.42   11.37    0.00    0.00     0.0     0.1    0.07    0.04    0.03    0.05    0.34    2.87    3.72    0.00    0.00    0.02    0.02    0.01    0.01    0.01    0.01    0.02    0.03    0.00    0.01    0.11    0.09    0.06    0.04    0.06    0.35    2.89    3.76
   17 114   183    40     1    77.5    76.9     0.6     0.0    8.84   45.73    0.23    2.50    0.00    6.35   60.82   11.37    0.00    0.00     0.0     0.1    0.07    0.04    0.03    0.04    0.29    2.77    3.73    0.00    0.00    0.02    0.01    0.01    0.01    0.01    0.01    0.02    0.03    0.00    0.01    0.10    0.08    0.05    0.03    0.05    0.30    2.79    3.76
   17 115   184    40     1    77.1    76.6     0.5     0.0    8.84   45.77    0.23    2.50    0.00    6.35   61.21   11.37    0.00    0.00     0.0     0.1    0.06    0.04    0.02    0.04    0.26    2.67    3.73    0.00    0.00    0.01    0.01    0.01    0.01    0.01    0.01    0.02    0.03    0.00    0.00    0.09    0.08    0.05    0.03    0.04    0.26    2.69    3.76
   17 116   185    40     1    76.7    76.2     0.5     0.0    8.86   45.82    0.23    2.50    0.00    6.37   61.61   11.37    0.00    0.00     0.0     0.0    0.07    0.03    0.02    0.03    0.23    2.57    3.73    0.00    0.00    0.01    0.01    0.01    0.01    0.00    0.01    0.02    0.03    0.00    0.00    0.06    0.08    0.04    0.03    0.04    0.23    2.58    3.76
   17 117   186    40     1    76.3    75.9     0.5     0.0    8.87   45.85    0.23    2.50    0.00    6.38   62.02   11.37    0.00    0.00     0.0     0.0    0.06    0.04    0.02    0.03    0.20    2.46    3.73    0.00    0.00    0.01    0.01    0.01    0.01    0.00    0.01    0.02    0.02    0.00    0.00    0.03    0.07    0.05    0.02    0.03    0.20    2.47    3.76
   17 118   187    40     1    75.9    75.5     0.4     0.0    8.87   45.89    0.23    2.50    0.00    6.38   62.42   11.37    0.00    0.00     0.0     0.0    0.04    0.04    0.02    0.03    0.17    2.35    3.73    0.00    0.00    0.01    0.01    0.01    0.00    0.00    0.00    0.01    0.02    0.00    0.00    0.02    0.05    0.04    0.02    0.03    0.18    2.36    3.76
   17 119   188    40     1    75.0    74.6     0.4     0.0    8.87   45.92    0.23    2.50    0.00    6.38   62.79   11.90    0.00    0.00     0.0     0.0    0.03    0.03    0.02    0.02    0.14    2.16    3.67    0.00    0.00    0.01    0.01    0.00    0.00    0.00    0.00    0.01    0.02    0.00    0.00    0.01    0.03    0.03    0.02    0.03    0.14    2.17    3.69
   17 120   189    40     1    73.4    73.1     0.3     0.0    8.87   45.95    0.23    2.50    0.00    6.38   63.19   13.09    0.00    0.00     0.0     0.0    0.02    0.02    0.01    0.02    0.10    1.88    3.51    0.00    0.00    0.00    0.00    0.00    0.00    0.00    0.00    0.01    0.02    0.00    0.00    0.01    0.02    0.02    0.02    0.02    0.10    1.89    3.53
   17 121   190    40     1    73.1    72.8     0.3     0.0    8.87   45.97    0.23    2.50    0.00    6.38   63.53   13.09    0.00    0.00     0.0     0.0    0.01    0.01    0.01    0.01    0.08    1.78    3.51    0.00    0.00    0.00    0.00    0.00    0.00    0.00    0.00    0.01    0.02    0.00    0.00    0.00    0.01    0.01    0.01    0.01    0.08    1.79    3.53
   17 122   191    40     1    72.7    72.4     0.3     0.0    8.89   45.99    0.23    2.50    0.00    6.40   63.86   13.17    0.00    0.00     0.0     0.0    0.01    0.01    0.01    0.01    0.06    1.67    3.51    0.00    0.00    0.00    0.00    0.00    0.00    0.00    0.00    0.01    0.02    0.00    0.00    0.00    0.01    0.01    0.01    0.01    0.07    1.68    3.52
   17 123   192    40     1    70.2    69.9     0.3     0.0    8.96   46.02    0.23    2.50    0.00    6.47   64.16   15.41    0.00    0.00     0.0     0.0    0.01    0.01    0.01    0.01    0.04    1.34    3.17    0.01    0.01    0.01    0.01    0.01    0.00    0.00    0.00    0.01    0.02    0.01    0.01    0.01    0.01    0.01    0.01    0.01    0.05    1.35    3.19
   17 124   193    40     1    70.0    69.6     0.4     0.0    9.09   46.05    0.23    2.50    0.00    6.60   64.43   15.49    0.00    0.00     0.0     0.0    0.00    0.00    0.00    0.01    0.03    1.25    3.16    0.01    0.01    0.01    0.01    0.01    0.01    0.01    0.01    0.01    0.02    0.01    0.01    0.01    0.01    0.01    0.01    0.01    0.04    1.26    3.18
   17 125   194    40     1    69.8    69.3     0.5     0.0    9.25   46.09    0.23    2.50    0.00    6.75   64.72   15.58    0.00    0.00     0.0     0.0    0.00    0.00    0.00    0.00    0.03    1.16    3.14    0.02    0.01    0.02    0.01    0.01    0.01    0.01    0.01    0.02    0.02    0.02    0.02    0.02    0.02    0.02    0.02    0.02    0.04    1.17    3.17
   17 126   195    40     1    69.6    69.0     0.6     0.0    9.42   46.13    0.23    2.50    0.00    6.92   65.00   15.66    0.00    0.00     0.0     0.0    0.00    0.00    0.00    0.00    0.02    1.07    3.12    0.02    0.02    0.02    0.02    0.02    0.02    0.02    0.02    0.02    0.03    0.02    0.02    0.02    0.02    0.02    0.02    0.02    0.04    1.09    3.15
   17 127   196    40     1    69.4    68.7     0.7     0.0    9.63   46.18    0.24    2.50    0.00    7.14   65.30   15.75    0.00    0.00     0.0     0.0    0.00    0.00    0.00    0.00    0.02    0.98    3.10    0.02    0.02    0.02    0.02    0.02    0.02    0.02    0.02    0.02    0.03    0.02    0.02    0.03    0.02    0.03    0.02    0.02    0.04    1.00    3.13
   17 128   197    40     1    69.2    68.4     0.8     0.0    9.86   46.25    0.24    2.50    0.00    7.36   65.59   15.86    0.00    0.00     0.0     0.0    0.00    0.00    0.00    0.00    0.02    0.89    3.07    0.03    0.02    0.03    0.02    0.03    0.02    0.02    0.02    0.03    0.03    0.04    0.03    0.03    0.03    0.03    0.03    0.03    0.04    0.92    3.11
   17 129   198    40     1    66.5    65.6     0.9     0.0   10.07   46.32    0.25    2.50    0.00    7.57   65.86   18.54    0.00    0.00     0.0     0.0    0.00    0.00    0.00    0.00    0.01    0.69    2.66    0.04    0.03    0.04    0.03    0.03    0.02    0.02    0.03    0.03    0.04    0.04    0.03    0.04    0.03    0.03    0.03    0.03    0.04    0.72    2.70
   17 130   199    40     1    65.3    64.4     0.9     0.0   10.27   46.40    0.25    2.50    0.00    7.77   66.13   19.66    0.00    0.00     0.0     0.0    0.00    0.00    0.00    0.01    0.01    0.58    2.49    0.03    0.03    0.04    0.03    0.03    0.02    0.02    0.03    0.03    0.04    0.03    0.03    0.04    0.03    0.03    0.03    0.03    0.04    0.61    2.53
   17 131   200    40     1    65.1    64.2     0.9     0.0   10.44   46.48    0.26    2.50    0.00    7.95   66.39   19.76    0.00    0.00     0.0     0.0    0.00    0.00    0.00    0.01    0.01    0.53    2.48    0.02    0.02    0.03    0.02    0.02    0.02    0.02    0.03    0.03    0.04    0.02    0.03    0.03    0.03    0.03    0.03    0.03    0.04    0.56    2.52
   17 132   201    40     1    65.0    64.1     0.9     0.0   10.62   46.55    0.26    2.50    0.00    8.12   66.64   19.76    0.00    0.00     0.0     0.0    0.00    0.00    0.00    0.01    0.01    0.49    2.48    0.02    0.02    0.03    0.02    0.02    0.02    0.02    0.03    0.03    0.04    0.02    0.02    0.03    0.03    0.03    0.03    0.03    0.04    0.52    2.52
   17 133   202    40     1    64.9    64.0     0.9     0.0   10.84   46.64    0.26    2.50    0.00    8.34   66.88   19.84    0.00    0.00     0.0     0.0    0.00    0.00    0.00    0.01    0.01    0.45    2.47    0.02    0.02    0.03    0.02    0.02    0.02    0.02    0.03    0.03    0.04    0.03    0.02    0.03    0.03    0.03    0.03    0.03    0.04    0.48    2.51
   17 134   203    40     1    64.9    63.9     1.0     0.0   11.10   46.73    0.27    2.50    0.00    8.60   67.13   19.84    0.00    0.00     0.0     0.0    0.00    0.00    0.00    0.01    0.01    0.41    2.47    0.03    0.02    0.03    0.03    0.03    0.02    0.03    0.03    0.03    0.04    0.03    0.03    0.03    0.03    0.03    0.03    0.03    0.04    0.44    2.52
   17 135   204    40     1    64.9    63.8     1.1     0.0   11.42   46.85    0.27    2.50    0.00    8.93   67.35   19.94    0.00    0.00     0.0     0.0    0.00    0.01    0.01    0.01    0.01    0.37    2.45    0.05    0.04    0.04    0.03    0.03    0.03    0.03    0.03    0.04    0.05    0.05    0.04    0.05    0.04    0.04    0.03    0.04    0.04    0.40    2.50
   17 136   205    40     1    62.7    61.5     1.3     0.0   11.78   46.98    0.27    2.50    0.00    9.28   67.58   22.23    0.00    0.01     0.0     0.0    0.01    0.01    0.01    0.01    0.01    0.28    2.10    0.06    0.05    0.06    0.04    0.04    0.03    0.03    0.04    0.04    0.05    0.06    0.05    0.06    0.05    0.05    0.04    0.04    0.05    0.33    2.15
   17 137   206    40     1    61.8    60.5     1.3     0.0   12.15   47.13    0.28    2.50    0.00    9.65   67.87   23.22    0.00    0.01     0.0     0.0    0.01    0.01    0.01    0.01    0.01    0.24    1.96    0.04    0.04    0.06    0.04    0.04    0.04    0.04    0.04    0.04    0.06    0.05    0.05    0.07    0.05    0.05    0.04    0.05    0.05    0.29    2.01
   17 138   207    40     1    61.6    60.2     1.4     0.0   12.51   47.28    0.28    2.50    0.00   10.02   68.18   23.54    0.00    0.01     0.0     0.0    0.01    0.01    0.01    0.01    0.01    0.22    1.91    0.04    0.04    0.05    0.04    0.04    0.04    0.04    0.04    0.05    0.06    0.04    0.05    0.06    0.05    0.05    0.05    0.05    0.06    0.26    1.97
   17 139   208    40     1    61.6    60.2     1.4     0.0   12.90   47.45    0.29    2.50    0.00   10.41   68.50   23.54    0.00    0.01     0.0     0.0    0.01    0.01    0.01    0.01    0.01    0.20    1.90    0.04    0.04    0.05    0.04    0.04    0.04    0.04    0.04    0.05    0.06    0.05    0.04    0.06    0.05    0.05    0.05    0.05    0.06    0.25    1.96
   17 140   209    40     1    61.7    60.2     1.5     0.0   13.30   47.64    0.29    2.50    0.00   10.81   68.82   23.54    0.00    0.01     0.0     0.0    0.01    0.01    0.01    0.01    0.02    0.18    1.88    0.04    0.04    0.04    0.04    0.04    0.04    0.04    0.04    0.05    0.06    0.05    0.04    0.05    0.05    0.05    0.05    0.05    0.06    0.23    1.95
[...]
   17 167   236     0     0    66.2    64.0     2.2     0.0   24.63   29.61    0.42    1.80    0.00   22.83   35.19   24.72    0.00    0.09     0.2     0.3    0.28    0.29    0.29    0.32    0.37    0.55    1.12    0.05    0.14    0.11    0.10    0.10    0.08    0.08    0.08    0.06    0.06    0.14    0.31    0.41    0.37    0.38    0.37    0.40    0.45    0.62    1.18
   17 168   237     0     0    66.0    63.7     2.3     0.0   25.15   30.03    0.42    1.80    0.00   23.35   35.89   24.72    0.00    0.10     0.2     0.3    0.28    0.29    0.29    0.32    0.37    0.54    1.08    0.04    0.16    0.11    0.10    0.10    0.08    0.08    0.08    0.06    0.06    0.14    0.35    0.42    0.38    0.39    0.38    0.40    0.45    0.60    1.13
   17 169   238     0     0    65.8    63.5     2.3     0.0   25.66   30.43    0.43    1.80    0.00   23.86   36.57   24.72    0.00    0.10     0.2     0.3    0.29    0.30    0.29    0.32    0.36    0.53    1.03    0.05    0.18    0.11    0.10    0.10    0.08    0.08    0.08    0.06    0.06    0.15    0.40    0.43    0.39    0.40    0.38    0.40    0.44    0.59    1.09
   17 170   239     0     0    65.6    63.3     2.3     0.0   26.14   30.83    0.43    1.80    0.00   24.34   37.24   24.72    0.00    0.11     0.2     0.3    0.30    0.30    0.30    0.32    0.36    0.51    0.99    0.05    0.20    0.11    0.10    0.10    0.08    0.08    0.08    0.06    0.06    0.16    0.44    0.43    0.39    0.40    0.38    0.40    0.44    0.58    1.05
   17 171   240     0     0    65.5    63.1     2.3     0.0   26.64   31.25    0.43    1.80    0.00   24.84   37.88   24.72    0.00    0.11     0.3     0.3    0.30    0.31    0.30    0.32    0.36    0.50    0.96    0.05    0.22    0.11    0.09    0.09    0.08    0.08    0.08    0.06    0.06    0.17    0.49    0.44    0.40    0.41    0.38    0.40    0.44    0.57    1.02
   17 172   241     0     0    65.4    63.0     2.4     0.0   27.14   31.68    0.43    1.80    0.00   25.34   38.50   24.72    0.00    0.12     0.3     0.3    0.31    0.32    0.30    0.33    0.36    0.50    0.92    0.06    0.23    0.11    0.09    0.09    0.08    0.08    0.08    0.06    0.06    0.17    0.54    0.45    0.40    0.41    0.39    0.41    0.44    0.56    0.98
   17 173   242     0     0    65.3    62.9     2.4     0.0   27.67   32.14    0.44    1.80    0.00   25.87   39.10   24.72    0.00    0.13     0.4     0.4    0.32    0.33    0.31    0.33    0.36    0.49    0.89    0.06    0.24    0.10    0.09    0.09    0.08    0.08    0.08    0.07    0.06    0.19    0.60    0.46    0.41    0.42    0.39    0.41    0.44    0.55    0.96
   17 174   243     0     0    65.3    62.9     2.4     0.0   28.26   32.66    0.44    1.80    0.00   26.46   39.69   24.72    0.00    0.14     0.4     0.4    0.33    0.34    0.32    0.34    0.37    0.48    0.87    0.06    0.24    0.10    0.09    0.09    0.08    0.08    0.08    0.07    0.06    0.20    0.66    0.47    0.42    0.43    0.40    0.42    0.45    0.55    0.93
   17 175   244     0     0    65.3    62.9     2.4     0.0   28.89   33.22    0.44    1.80    0.00   27.08   40.26   24.72    0.00    0.15     0.5     0.4    0.35    0.35    0.33    0.34    0.37    0.48    0.85    0.05    0.25    0.10    0.09    0.09    0.08    0.08    0.08    0.07    0.06    0.20    0.72    0.49    0.44    0.44    0.41    0.42    0.45    0.55    0.91
   17 176   245     0     0    65.4    63.0     2.4     0.0   29.51   33.80    0.44    1.80    0.00   27.71   40.84   24.72    0.00    0.16     0.5     0.4    0.37    0.37    0.34    0.35    0.38    0.48    0.83    0.05    0.25    0.09    0.09    0.09    0.08    0.08    0.08    0.07    0.06    0.22    0.79    0.50    0.45    0.45    0.42    0.43    0.46    0.55    0.89
   17 177   246     0     0    65.4    63.0     2.4     0.0   30.10   34.35    0.45    1.80    0.00   28.30   41.42   24.72    0.00    0.17     0.6     0.4    0.38    0.38    0.35    0.36    0.39    0.48    0.81    0.05    0.25    0.09    0.08    0.09    0.08    0.08    0.08    0.07    0.07    0.22    0.85    0.52    0.46    0.47    0.43    0.44    0.46    0.55    0.87
   17 178   247     0     0    65.4    63.0     2.4     0.0   30.69   34.89    0.45    1.80    0.00   28.89   42.00   24.72    0.00    0.15     0.7     0.4    0.39    0.39    0.36    0.37    0.39    0.48    0.79    0.05    0.25    0.09    0.08    0.09    0.08    0.08    0.08    0.07    0.07    0.21    0.92    0.53    0.47    0.48    0.43    0.45    0.47    0.54    0.86
   17 179   248     0     0    65.4    62.9     2.4     0.0   31.31   35.43    0.45    1.80    0.00   29.51   42.62   24.72    0.00    0.09     0.7     0.5    0.40    0.40    0.37    0.38    0.40    0.48    0.77    0.07    0.28    0.09    0.08    0.09    0.08    0.08    0.08    0.06    0.07    0.15    1.03    0.54    0.49    0.49    0.44    0.45    0.47    0.54    0.84
   17 180   249     0     0    65.4    62.8     2.6     0.0   32.09   35.95    0.45    1.80    0.00   30.28   43.41   24.72    0.00    0.08     0.7     0.5    0.42    0.41    0.37    0.38    0.40    0.48    0.76    0.08    0.40    0.09    0.08    0.08    0.08    0.08    0.08    0.06    0.07    0.16    1.07    0.61    0.50    0.50    0.45    0.46    0.48    0.54    0.82
   17 181   250     0     0    65.3    62.6     2.7     0.0   32.88   36.49    0.46    1.80    0.00   31.08   44.24   24.72    0.00    0.08     0.6     0.5    0.43    0.42    0.38    0.39    0.41    0.48    0.74    0.09    0.50    0.09    0.08    0.08    0.07    0.07    0.07    0.06    0.07    0.17    1.13    0.64    0.51    0.50    0.46    0.46    0.48    0.54    0.81
   17 182   251     0     0    65.3    62.5     2.8     0.0   33.67   37.06    0.46    1.80    0.00   31.87   45.04   24.72    0.00    0.10     0.6     0.6    0.44    0.43    0.39    0.39    0.41    0.47    0.73    0.09    0.57    0.09    0.08    0.08    0.07    0.07    0.07    0.06    0.06    0.19    1.21    0.65    0.52    0.51    0.46    0.47    0.49    0.54    0.79
   17 183   252     0     0    65.2    62.4     2.8     0.0   34.41   37.62    0.46    1.80    0.00   32.61   45.84   24.72    0.00    0.12     0.7     0.6    0.45    0.44    0.39    0.40    0.41    0.47    0.71    0.09    0.62    0.10    0.08    0.08    0.07    0.07    0.07    0.06    0.06    0.21    1.29    0.65    0.53    0.52    0.47    0.47    0.49    0.54    0.78
   17 184   253     0     0    65.1    62.3     2.9     0.0   35.08   38.15    0.46    1.80    0.00   33.28   46.62   24.72    0.00    0.13     0.7     0.5    0.46    0.45    0.40    0.40    0.42    0.47    0.70    0.09    0.64    0.10    0.08    0.08    0.07    0.07    0.07    0.06    0.06    0.22    1.36    0.64    0.54    0.53    0.47    0.48    0.49    0.53    0.76
   17 185   254     0     0    65.0    62.1     2.9     0.0   35.72   38.67    0.47    1.80    0.00   33.92   47.39   24.72    0.00    0.14     0.8     0.5    0.47    0.45    0.40    0.41    0.42    0.47    0.68    0.09    0.66    0.10    0.08    0.08    0.07    0.07    0.07    0.06    0.06    0.23    1.43    0.64    0.55    0.53    0.48    0.48    0.49    0.53    0.75
   17 186   255     0     0    64.9    62.0     2.9     0.0   36.35   39.19    0.47    1.80    0.00   34.55   48.15   24.72    0.00    0.15     0.8     0.5    0.48    0.46    0.41    0.41    0.42    0.47    0.67    0.09    0.67    0.10    0.08    0.08    0.07    0.07    0.07    0.06    0.06    0.24    1.50    0.63    0.55    0.54    0.48    0.48    0.49    0.53    0.73
   17 187   256     0     0    64.8    61.9     2.9     0.0   37.00   39.73    0.47    1.80    0.00   35.20   48.89   24.72    0.00    0.16     0.9     0.5    0.49    0.46    0.41    0.41    0.42    0.46    0.66    0.09    0.68    0.10    0.08    0.08    0.07    0.07    0.07    0.06    0.06    0.25    1.58    0.63    0.56    0.54    0.48    0.48    0.49    0.52    0.72
   17 188   257     0     0    64.7    61.8     2.9     0.0   37.67   40.31    0.47    1.80    0.00   35.87   49.62   24.72    0.00    0.17     1.0     0.5    0.50    0.47    0.42    0.42    0.43    0.46    0.65    0.09    0.69    0.10    0.08    0.08    0.07    0.07    0.07    0.06    0.06    0.26    1.68    0.63    0.57    0.55    0.49    0.49    0.50    0.52    0.71
   17 189   258     0     0    64.7    61.8     2.9     0.0   38.39   40.95    0.47    1.80    0.00   36.59   50.31   24.72    0.00    0.19     1.1     0.5    0.51    0.48    0.43    0.43    0.43    0.46    0.64    0.09    0.69    0.10    0.07    0.08    0.07    0.07    0.07    0.06    0.06    0.28    1.79    0.63    0.58    0.56    0.50    0.50    0.50    0.52    0.70
   17 190   259     0     0    64.8    61.9     2.9     0.0   39.14   41.63    0.48    1.80    0.00   37.34   51.00   24.72    0.00    0.06     1.1     0.9    0.52    0.49    0.44    0.43    0.44    0.47    0.63    0.09    0.68    0.10    0.07    0.07    0.07    0.07    0.07    0.06    0.06    0.15    1.83    0.95    0.59    0.57    0.50    0.50    0.51    0.53    0.69
   17 191   260     0     0    64.9    61.8     3.1     0.0   40.14   42.29    0.48    1.80    0.00   38.34   51.89   24.72    0.00    0.05     1.0     0.9    0.62    0.51    0.45    0.44    0.45    0.47    0.63    0.13    0.83    0.11    0.07    0.07    0.07    0.07    0.07    0.06    0.06    0.18    1.85    1.00    0.69    0.58    0.51    0.51    0.52    0.53    0.69
   17 192   261     0     0    65.1    61.8     3.3     0.0   41.15   42.97    0.48    1.80    0.00   39.35   52.70   24.72    0.00    0.07     1.0     0.9    0.70    0.52    0.46    0.45    0.46    0.47    0.62    0.13    0.95    0.12    0.08    0.07    0.07    0.07    0.07    0.06    0.06    0.20    1.96    0.99    0.78    0.59    0.52    0.52    0.52    0.53    0.68
   17 193   262     0     0    65.2    61.8     3.4     0.0   42.16   43.69    0.48    1.80    0.00   40.36   53.61   24.72    0.00    0.08     1.0     0.8    0.73    0.54    0.47    0.46    0.46    0.48    0.62    0.13    1.03    0.13    0.09    0.07    0.07    0.07    0.07    0.06    0.06    0.22    2.07    0.96    0.82    0.61    0.53    0.53    0.53    0.54    0.68
   17 194   263     0     0    65.2    61.7     3.5     0.0   43.17   44.43    0.49    1.80    0.00   41.37   54.63   24.72    0.00    0.10     1.1     0.8    0.68    0.60    0.48    0.47    0.47    0.48    0.61    0.14    1.07    0.14    0.09    0.07    0.06    0.07    0.07    0.06    0.06    0.24    2.17    0.90    0.77    0.67    0.54    0.54    0.54    0.54    0.68
   17 195   264     0     0    65.2    61.7     3.5     0.0   44.11   45.14    0.49    1.80    0.00   42.30   55.50   24.72    0.00    0.11     1.2     0.8    0.65    0.61    0.49    0.48    0.48    0.48    0.61    0.14    1.09    0.14    0.09    0.08    0.06    0.07    0.07    0.06    0.06    0.25    2.24    0.90    0.74    0.69    0.55    0.54    0.55    0.54    0.67
   17 196   265     0     0    65.3    61.7     3.5     0.0   44.98   45.80    0.49    1.80    0.00   43.17   56.34   24.72    0.00    0.12     1.2     0.7    0.60    0.64    0.50    0.49    0.49    0.49    0.61    0.14    1.10    0.14    0.10    0.08    0.06    0.07    0.07    0.06    0.06    0.27    2.32    0.85    0.70    0.72    0.56    0.55    0.55    0.55    0.67
   17 197   266     0     0    65.2    61.7     3.5     0.0   45.79   46.43    0.50    1.80    0.00   43.99   57.16   24.72    0.00    0.15     1.3     0.7    0.57    0.64    0.51    0.49    0.49    0.49    0.61    0.16    1.10    0.13    0.10    0.08    0.06    0.07    0.07    0.06    0.06    0.30    2.38    0.79    0.67    0.72    0.57    0.56    0.56    0.55    0.67
   17 198   267     0     0    65.2    61.7     3.5     0.0   46.56   47.04    0.50    1.80    0.00   44.75   57.99   24.72    0.00    0.18     1.3     0.6    0.54    0.63    0.51    0.50    0.50    0.50    0.61    0.16    1.08    0.13    0.10    0.09    0.06    0.06    0.07    0.06    0.06    0.35    2.41    0.75    0.64    0.72    0.58    0.56    0.56    0.55    0.67
   17 199   268     0     0    65.1    61.7     3.4     0.0   47.29   47.64    0.50    1.80    0.00   45.49   58.80   24.72    0.00    0.22     1.4     0.6    0.51    0.63    0.52    0.50    0.50    0.50    0.61    0.17    1.06    0.12    0.10    0.09    0.06    0.06    0.07    0.06    0.06    0.39    2.44    0.70    0.60    0.72    0.59    0.57    0.57    0.56    0.67
   17 200   269     0     0    65.0    61.6     3.4     0.0   48.06   48.27    0.50    1.80    0.00   46.26   59.61   24.72    0.00    0.25     1.4     0.5    0.48    0.62    0.53    0.51    0.51    0.50    0.60    0.17    1.05    0.12    0.10    0.09    0.06    0.06    0.06    0.06    0.06    0.42    2.49    0.66    0.58    0.71    0.60    0.57    0.57    0.56    0.66
   17 201   270     0     0    65.1    61.7     3.4     0.0   48.91   48.97    0.50    1.80    0.00   47.10   60.41   24.72    0.00    0.29     1.5     0.5    0.46    0.62    0.54    0.52    0.52    0.51    0.60    0.16    1.04    0.12    0.10    0.09    0.06    0.06    0.06    0.06    0.06    0.45    2.57    0.63    0.56    0.71    0.61    0.58    0.58    0.56    0.66
   17 202   271     0     0    65.2    61.8     3.4     0.0   49.79   49.71    0.50    1.80    0.00   47.99   61.23   24.72    0.00    0.33     1.6     0.5    0.44    0.61    0.55    0.53    0.52    0.51    0.60    0.16    1.03    0.12    0.10    0.09    0.06    0.06    0.06    0.06    0.06    0.49    2.66    0.61    0.54    0.71    0.62    0.59    0.59    0.57    0.66
   17 203   272     0     0    65.2    61.9     3.3     0.0   50.72   50.51    0.51    1.80    0.00   48.92   62.07   24.72    0.00    0.37     1.7     0.5    0.43    0.61    0.56    0.54    0.53    0.51    0.60    0.16    1.01    0.12    0.10    0.09    0.06    0.06    0.06    0.06    0.06    0.52    2.75    0.59    0.53    0.71    0.63    0.60    0.59    0.57    0.66
   17 204   273     0     0    65.4    62.1     3.3     0.0   51.67   51.34    0.51    1.80    0.00   49.87   62.86   24.72    0.00    0.41     1.9     0.5    0.42    0.61    0.57    0.55    0.54    0.52    0.60    0.16    0.99    0.12    0.10    0.09    0.06    0.06    0.06    0.06    0.06    0.57    2.86    0.58    0.52    0.71    0.64    0.61    0.60    0.57    0.66
   17 205   274     0     0    65.5    62.2     3.3     0.0   52.59   52.15    0.51    1.80    0.00   50.78   63.63   24.72    0.00    0.45     2.0     0.5    0.41    0.61    0.58    0.56    0.55    0.52    0.60    0.16    0.97    0.12    0.10    0.09    0.06    0.06    0.06    0.06    0.06    0.61    2.96    0.57    0.51    0.70    0.65    0.62    0.61    0.58    0.66
   17 206   275     0     0    65.9    62.6     3.3     0.0   53.43   52.89    0.51    1.80    0.00   51.63   64.10   24.72    0.00    0.22     1.9     1.1    0.50    0.62    0.59    0.57    0.56    0.53    0.60    0.20    0.96    0.12    0.10    0.10    0.06    0.06    0.06    0.06    0.06    0.42    2.84    1.19    0.60    0.71    0.66    0.63    0.62    0.59    0.66
   17 207   276     0     0    66.2    62.7     3.5     0.0   54.29   53.48    0.51    1.80    0.00   52.49   64.64   24.72    0.00    0.11     1.3     1.5    0.66    0.84    0.71    0.57    0.57    0.54    0.61    0.25    1.07    0.13    0.10    0.10    0.06    0.06    0.06    0.06    0.06    0.36    2.33    1.62    0.76    0.94    0.77    0.64    0.63    0.59    0.67
   17 208   277     0     0    66.7    63.0     3.7     0.0   55.03   53.98    0.51    1.80    0.00   53.23   64.89   24.72    0.00    0.11     1.2     1.4    0.77    0.84    0.84    0.59    0.58    0.55    0.61    0.31    1.17    0.14    0.12    0.11    0.07    0.06    0.06    0.06    0.06    0.42    2.33    1.52    0.88    0.95    0.91    0.65    0.64    0.60    0.67
   17 209   278     0     0    67.0    63.2     3.9     0.0   55.73   54.47    0.52    1.80    0.00   53.93   65.26   24.72    0.00    0.14     1.1     1.2    0.77    0.77    0.77    0.78    0.72    0.55    0.62    0.37    1.24    0.15    0.13    0.11    0.07    0.06    0.06    0.05    0.06    0.50    2.36    1.35    0.90    0.88    0.84    0.84    0.78    0.61    0.68
   17 210   279     0     0    67.3    63.4     3.9     0.0   56.45   55.04    0.52    1.80    0.00   54.64   65.71   24.72    0.00    0.20     1.2     1.1    0.75    0.73    0.74    0.75    0.82    0.58    0.62    0.39    1.25    0.15    0.13    0.12    0.08    0.07    0.07    0.05    0.06    0.59    2.45    1.27    0.88    0.85    0.82    0.82    0.88    0.63    0.68
   17 211   280     0     0    67.7    63.7     4.0     0.0   57.22   55.70    0.52    1.80    0.00   55.42   66.09   24.72    0.00    0.26     1.3     1.1    0.75    0.73    0.75    0.75    0.80    0.59    0.63    0.38    1.27    0.15    0.13    0.12    0.08    0.07    0.07    0.06    0.06    0.64    2.60    1.25    0.88    0.85    0.83    0.83    0.88    0.65    0.69
   17 212   281     0     0    68.4    64.4     4.0     0.0   58.13   56.50    0.53    1.80    0.00   56.33   66.26   24.72    0.00    0.34     1.6     1.1    0.75    0.73    0.75    0.76    0.80    0.63    0.64    0.39    1.29    0.16    0.13    0.12    0.09    0.08    0.08    0.06    0.06    0.73    2.86    1.24    0.89    0.86    0.84    0.84    0.88    0.68    0.70
   17 213   282     0     0    69.4    65.3     4.1     0.0   59.15   57.43    0.53    1.80    0.00   57.35   66.28   24.72    0.00    0.38     1.9     1.1    0.78    0.76    0.77    0.77    0.82    0.64    0.65    0.38    1.31    0.16    0.14    0.13    0.10    0.09    0.08    0.06    0.06    0.76    3.20    1.28    0.92    0.89    0.86    0.86    0.91    0.70    0.72
   17 214   283     0     0    70.7    66.4     4.3     0.0   60.40   58.52    0.53    1.80    0.00   58.60   66.28   24.72    0.00    0.49     2.3     1.2    0.81    0.78    0.79    0.79    0.84    0.67    0.67    0.51    1.33    0.15    0.14    0.13    0.10    0.10    0.09    0.06    0.06    1.01    3.59    1.32    0.95    0.91    0.89    0.89    0.93    0.73    0.73
   17 215   284     0     0    71.9    67.6     4.3     0.0   61.68   59.76    0.53    1.80    0.00   59.88   66.28   24.72    0.00    0.60     2.7     1.3    0.85    0.82    0.81    0.82    0.87    0.69    0.69    0.50    1.33    0.15    0.14    0.13    0.11    0.10    0.09    0.06    0.06    1.10    4.00    1.43    0.99    0.95    0.92    0.92    0.96    0.75    0.75
   17 216   285     0     0    73.3    68.9     4.4     0.0   63.08   61.06    0.54    1.80    0.00   61.28   66.28   24.72    0.00    0.77     3.1     1.3    0.90    0.86    0.84    0.84    0.90    0.71    0.71    0.61    1.33    0.15    0.14    0.13    0.11    0.11    0.09    0.07    0.06    1.38    4.43    1.47    1.03    0.99    0.95    0.95    0.99    0.78    0.77
   17 217   286     0     0    74.6    70.2     4.4     0.0   64.42   62.41    0.54    1.80    0.00   62.62   66.28   24.72    0.00    0.99     3.5     1.4    0.94    0.89    0.87    0.87    0.92    0.74    0.73    0.60    1.31    0.15    0.13    0.13    0.11    0.11    0.09    0.07    0.06    1.60    4.85    1.51    1.07    1.03    0.98    0.98    1.01    0.80    0.79
   17 218   287     0     0    75.9    71.6     4.3     0.0   65.70   63.75    0.54    1.80    0.00   63.89   66.28   24.72    0.00    1.21     4.0     1.4    0.98    0.93    0.90    0.90    0.95    0.76    0.75    0.56    1.28    0.15    0.13    0.13    0.11    0.11    0.09    0.07    0.06    1.77    5.24    1.55    1.11    1.07    1.02    1.01    1.04    0.83    0.81
   17 219   288     0     0    77.0    72.7     4.3     0.0   66.82   64.91    0.54    1.80    0.00   65.02   66.28   24.72    0.00    1.38     4.3     1.4    1.01    0.97    0.93    0.93    0.97    0.78    0.77    0.52    1.26    0.14    0.13    0.13    0.11    0.11    0.09    0.07    0.06    1.90    5.57    1.59    1.15    1.10    1.05    1.04    1.06    0.85    0.83
