*WATER BALANCE OUTPUT FILE

*DSSAT Cropping System Model Ver. 4.8.5.000 -release  MAR 01, 2026 09:34:40

*RUN   1        : 1                         WHAPS048 TUDU1701    1
 MODEL          : WHAPS048 - Wheat
 EXPERIMENT     : TUDU1701 WH
 DATA PATH      :
 TREATMENT  1   : 1                         WHAPS048
  

!     WATER BALANCE PARAMETERS
!     ========================                 --mm--

!     Soil H20 (start) on Year/day   16/298    532.40
!     Soil H20 (final) on Year/day   17/219    452.78
!     Effective Irrigation                       0.00
!     Precipitation                            514.30
!     Water added with new mulch                 0.00
!     Net lateral flow                           0.00
!     Drainage                                 107.06
!     Tiledrain flow                             0.00
!     Runoff                                     7.98
!     Mulch evaporation                          0.00
!     Soil Evaporation                         202.30
!     Transpiration                            269.18
!     Total evapotranspiration                 471.48
!     Total potential evapotranspiration       648.21

!     Initial mulch water content                0.00
!     Final mulch water content                  0.00

!     Final Balance                             7.407


*DSSAT Cropping System Model Ver. 4.8.5.000 -release  MAR 01, 2026 09:34:40

*RUN   2        : 2                         WHAPS048 TUDU1701    2
 MODEL          : WHAPS048 - Wheat
 EXPERIMENT     : TUDU1701 WH
 DATA PATH      :
 TREATMENT  2   : 2                         WHAPS048
  

!     WATER BALANCE PARAMETERS
!     ========================                 --mm--

!     Soil H20 (start) on Year/day   16/298    532.40
!     Soil H20 (final) on Year/day   17/219    452.15
!     Effective Irrigation                       0.00
!     Precipitation                            514.30
!     Water added with new mulch                 0.00
!     Net lateral flow                           0.00
!     Drainage                                 106.97
!     Tiledrain flow                             0.00
!     Runoff                                     7.97
!     Mulch evaporation                          0.00
!     Soil Evaporation                         202.01
!     Transpiration                            270.19
!     Total evapotranspiration                 472.20
!     Total potential evapotranspiration       648.06

!     Initial mulch water content                0.00
!     Final mulch water content                  0.00

!     Final Balance                             7.405


*DSSAT Cropping System Model Ver. 4.8.5.000 -release  MAR 01, 2026 09:34:40

*RUN   3        : 3                         WHAPS048 TUDU1701    3
 MODEL          : WHAPS048 - Wheat
 EXPERIMENT     : TUDU1701 WH
 DATA PATH      :
 TREATMENT  3   : 3                         WHAPS048
  

!     WATER BALANCE PARAMETERS
!     ========================                 --mm--

!     Soil H20 (start) on Year/day   16/298    532.40
!     Soil H20 (final) on Year/day   17/219    524.86
!     Effective Irrigation                       0.00
!     Precipitation                            514.30
!     Water added with new mulch                 0.00
!     Net lateral flow                           0.00
!     Drainage                                 112.51
!     Tiledrain flow                             0.00
!     Runoff                                     7.04
!     Mulch evaporation                          0.00
!     Soil Evaporation                         286.04
!     Transpiration                            108.84
!     Total evapotranspiration                 394.88
!     Total potential evapotranspiration       684.12

!     Initial mulch water content                0.00
!     Final mulch water content                  0.00

!     Final Balance                             7.405


*DSSAT Cropping System Model Ver. 4.8.5.000 -release  MAR 01, 2026 09:34:41

*RUN   4        : 4                         WHAPS048 TUDU1701    4
 MODEL          : WHAPS048 - Wheat
 EXPERIMENT     : TUDU1701 WH
 DATA PATH      :
 TREATMENT  4   : 4                         WHAPS048
  

!     WATER BALANCE PARAMETERS
!     ========================                 --mm--

!     Soil H20 (start) on Year/day   16/298    532.40
!     Soil H20 (final) on Year/day   17/219    452.39
!     Effective Irrigation                       0.00
!     Precipitation                            514.30
!     Water added with new mulch                 0.00
!     Net lateral flow                           0.00
!     Drainage                                 107.57
!     Tiledrain flow                             0.00
!     Runoff                                     7.98
!     Mulch evaporation                          0.00
!     Soil Evaporation                         202.55
!     Transpiration                            268.81
!     Total evapotranspiration                 471.35
!     Total potential evapotranspiration       648.30

!     Initial mulch water content                0.00
!     Final mulch water content                  0.00

!     Final Balance                             7.406


*DSSAT Cropping System Model Ver. 4.8.5.000 -release  MAR 01, 2026 09:34:41

*RUN   5        : 5                         WHAPS048 TUDU1701    5
 MODEL          : WHAPS048 - Wheat
 EXPERIMENT     : TUDU1701 WH
 DATA PATH      :
 TREATMENT  5   : 5                         WHAPS048
  

!     WATER BALANCE PARAMETERS
!     ========================                 --mm--

!     Soil H20 (start) on Year/day   16/298    532.40
!     Soil H20 (final) on Year/day   17/219    443.73
!     Effective Irrigation                       0.00
!     Precipitation                            514.30
!     Water added with new mulch                 0.00
!     Net lateral flow                           0.00
!     Drainage                                  94.03
!     Tiledrain flow                             0.00
!     Runoff                                     7.90
!     Mulch evaporation                          0.00
!     Soil Evaporation                         179.47
!     Transpiration                            314.15
!     Total evapotranspiration                 493.62
!     Total potential evapotranspiration       642.66

!     Initial mulch water content                0.00
!     Final mulch water content                  0.00

!     Final Balance                             7.405


*DSSAT Cropping System Model Ver. 4.8.5.000 -release  MAR 01, 2026 09:34:41

*RUN   6        : 6                         WHAPS048 TUDU1701    6
 MODEL          : WHAPS048 - Wheat
 EXPERIMENT     : TUDU1701 WH
 DATA PATH      :
 TREATMENT  6   : 6                         WHAPS048
  

!     WATER BALANCE PARAMETERS
!     ========================                 --mm--

!     Soil H20 (start) on Year/day   16/298    532.40
!     Soil H20 (final) on Year/day   17/219    452.56
!     Effective Irrigation                       0.00
!     Precipitation                            514.30
!     Water added with new mulch                 0.00
!     Net lateral flow                           0.00
!     Drainage                                 107.83
!     Tiledrain flow                             0.00
!     Runoff                                     7.97
!     Mulch evaporation                          0.00
!     Soil Evaporation                         202.88
!     Transpiration                            268.05
!     Total evapotranspiration                 470.93
!     Total potential evapotranspiration       648.46

!     Initial mulch water content                0.00
!     Final mulch water content                  0.00

!     Final Balance                             7.406


*DSSAT Cropping System Model Ver. 4.8.5.000 -release  MAR 01, 2026 09:34:41

*RUN   7        : 7                         WHAPS048 TUDU1701    7
 MODEL          : WHAPS048 - Wheat
 EXPERIMENT     : TUDU1701 WH
 DATA PATH      :
 TREATMENT  7   : 7                         WHAPS048
  

!     WATER BALANCE PARAMETERS
!     ========================                 --mm--

!     Soil H20 (start) on Year/day   16/298    532.40
!     Soil H20 (final) on Year/day   17/219    443.57
!     Effective Irrigation                       0.00
!     Precipitation                            514.30
!     Water added with new mulch                 0.00
!     Net lateral flow                           0.00
!     Drainage                                  93.90
!     Tiledrain flow                             0.00
!     Runoff                                     7.90
!     Mulch evaporation                          0.00
!     Soil Evaporation                         179.28
!     Transpiration                            314.65
!     Total evapotranspiration                 493.93
!     Total potential evapotranspiration       642.63

!     Initial mulch water content                0.00
!     Final mulch water content                  0.00

!     Final Balance                             7.403


*DSSAT Cropping System Model Ver. 4.8.5.000 -release  MAR 01, 2026 09:34:41

*RUN   8        : 8                         WHAPS048 TUDU1701    8
 MODEL          : WHAPS048 - Wheat
 EXPERIMENT     : TUDU1701 WH
 DATA PATH      :
 TREATMENT  8   : 8                         WHAPS048
  

!     WATER BALANCE PARAMETERS
!     ========================                 --mm--

!     Soil H20 (start) on Year/day   16/298    532.40
!     Soil H20 (final) on Year/day   17/219    442.42
!     Effective Irrigation                       0.00
!     Precipitation                            514.30
!     Water added with new mulch                 0.00
!     Net lateral flow                           0.00
!     Drainage                                  83.65
!     Tiledrain flow                             0.00
!     Runoff                                     7.80
!     Mulch evaporation                          0.00
!     Soil Evaporation                         165.26
!     Transpiration                            340.16
!     Total evapotranspiration                 505.42
!     Total potential evapotranspiration       639.46

!     Initial mulch water content                0.00
!     Final mulch water content                  0.00

!     Final Balance                             7.404


*DSSAT Cropping System Model Ver. 4.8.5.000 -release  MAR 01, 2026 09:34:42

*RUN   9        : 9                         WHAPS048 TUDU1701    9
 MODEL          : WHAPS048 - Wheat
 EXPERIMENT     : TUDU1701 WH
 DATA PATH      :
 TREATMENT  9   : 9                         WHAPS048
  

!     WATER BALANCE PARAMETERS
!     ========================                 --mm--

!     Soil H20 (start) on Year/day   16/298    532.40
!     Soil H20 (final) on Year/day   17/219    442.38
!     Effective Irrigation                       0.00
!     Precipitation                            514.30
!     Water added with new mulch                 0.00
!     Net lateral flow                           0.00
!     Drainage                                  83.77
!     Tiledrain flow                             0.00
!     Runoff                                     7.79
!     Mulch evaporation                          0.00
!     Soil Evaporation                         165.22
!     Transpiration                            340.14
!     Total evapotranspiration                 505.36
!     Total potential evapotranspiration       639.46

!     Initial mulch water content                0.00
!     Final mulch water content                  0.00

!     Final Balance                             7.407


*DSSAT Cropping System Model Ver. 4.8.5.000 -release  MAR 01, 2026 09:34:42

*RUN  10        : 10                        WHAPS048 TUDU1701   10
 MODEL          : WHAPS048 - Wheat
 EXPERIMENT     : TUDU1701 WH
 DATA PATH      :
 TREATMENT 10   : 10                        WHAPS048
  

!     WATER BALANCE PARAMETERS
!     ========================                 --mm--

!     Soil H20 (start) on Year/day   16/298    532.40
!     Soil H20 (final) on Year/day   17/219    524.75
!     Effective Irrigation                       0.00
!     Precipitation                            514.30
!     Water added with new mulch                 0.00
!     Net lateral flow                           0.00
!     Drainage                                 112.50
!     Tiledrain flow                             0.00
!     Runoff                                     7.04
!     Mulch evaporation                          0.00
!     Soil Evaporation                         286.04
!     Transpiration                            108.97
!     Total evapotranspiration                 395.00
!     Total potential evapotranspiration       684.16

!     Initial mulch water content                0.00
!     Final mulch water content                  0.00

!     Final Balance                             7.404


*DSSAT Cropping System Model Ver. 4.8.5.000 -release  MAR 01, 2026 09:34:43

*RUN  11        : 11                        WHAPS048 TUDU1701   11
 MODEL          : WHAPS048 - Wheat
 EXPERIMENT     : TUDU1701 WH
 DATA PATH      :
 TREATMENT 11   : 11                        WHAPS048
  

!     WATER BALANCE PARAMETERS
!     ========================                 --mm--

!     Soil H20 (start) on Year/day   16/298    532.40
!     Soil H20 (final) on Year/day   17/219    442.42
!     Effective Irrigation                       0.00
!     Precipitation                            514.30
!     Water added with new mulch                 0.00
!     Net lateral flow                           0.00
!     Drainage                                  83.65
!     Tiledrain flow                             0.00
!     Runoff                                     7.80
!     Mulch evaporation                          0.00
!     Soil Evaporation                         165.26
!     Transpiration                            340.16
!     Total evapotranspiration                 505.42
!     Total potential evapotranspiration       639.45

!     Initial mulch water content                0.00
!     Final mulch water content                  0.00

!     Final Balance                             7.406


*DSSAT Cropping System Model Ver. 4.8.5.000 -release  MAR 01, 2026 09:34:43

*RUN  12        : 12                        WHAPS048 TUDU1701   12
 MODEL          : WHAPS048 - Wheat
 EXPERIMENT     : TUDU1701 WH
 DATA PATH      :
 TREATMENT 12   : 12                        WHAPS048
  

!     WATER BALANCE PARAMETERS
!     ========================                 --mm--

!     Soil H20 (start) on Year/day   16/298    532.40
!     Soil H20 (final) on Year/day   17/219    442.54
!     Effective Irrigation                       0.00
!     Precipitation                            514.30
!     Water added with new mulch                 0.00
!     Net lateral flow                           0.00
!     Drainage                                  84.02
!     Tiledrain flow                             0.00
!     Runoff                                     7.78
!     Mulch evaporation                          0.00
!     Soil Evaporation                         165.50
!     Transpiration                            339.45
!     Total evapotranspiration                 504.96
!     Total potential evapotranspiration       639.54

!     Initial mulch water content                0.00
!     Final mulch water content                  0.00

!     Final Balance                             7.404


*DSSAT Cropping System Model Ver. 4.8.5.000 -release  MAR 01, 2026 09:34:43

*RUN  13        : 13                        WHAPS048 TUDU1701   13
 MODEL          : WHAPS048 - Wheat
 EXPERIMENT     : TUDU1701 WH
 DATA PATH      :
 TREATMENT 13   : 13                        WHAPS048
  

!     WATER BALANCE PARAMETERS
!     ========================                 --mm--

!     Soil H20 (start) on Year/day   16/298    532.40
!     Soil H20 (final) on Year/day   17/219    439.81
!     Effective Irrigation                       0.00
!     Precipitation                            514.30
!     Water added with new mulch                 0.00
!     Net lateral flow                           0.00
!     Drainage                                  84.36
!     Tiledrain flow                             0.00
!     Runoff                                     7.84
!     Mulch evaporation                          0.00
!     Soil Evaporation                         166.04
!     Transpiration                            341.25
!     Total evapotranspiration                 507.29
!     Total potential evapotranspiration       639.60

!     Initial mulch water content                0.00
!     Final mulch water content                  0.00

!     Final Balance                             7.407


*DSSAT Cropping System Model Ver. 4.8.5.000 -release  MAR 01, 2026 09:34:44

*RUN  14        : 14                        WHAPS048 TUDU1701   14
 MODEL          : WHAPS048 - Wheat
 EXPERIMENT     : TUDU1701 WH
 DATA PATH      :
 TREATMENT 14   : 14                        WHAPS048
  

!     WATER BALANCE PARAMETERS
!     ========================                 --mm--

!     Soil H20 (start) on Year/day   16/298    532.40
!     Soil H20 (final) on Year/day   17/219    443.71
!     Effective Irrigation                       0.00
!     Precipitation                            514.30
!     Water added with new mulch                 0.00
!     Net lateral flow                           0.00
!     Drainage                                  93.90
!     Tiledrain flow                             0.00
!     Runoff                                     7.83
!     Mulch evaporation                          0.00
!     Soil Evaporation                         178.53
!     Transpiration                            315.33
!     Total evapotranspiration                 493.86
!     Total potential evapotranspiration       642.29

!     Initial mulch water content                0.00
!     Final mulch water content                  0.00

!     Final Balance                             7.401


*DSSAT Cropping System Model Ver. 4.8.5.000 -release  MAR 01, 2026 09:34:44

*RUN  15        : 15                        WHAPS048 TUDU1701   15
 MODEL          : WHAPS048 - Wheat
 EXPERIMENT     : TUDU1701 WH
 DATA PATH      :
 TREATMENT 15   : 15                        WHAPS048
  

!     WATER BALANCE PARAMETERS
!     ========================                 --mm--

!     Soil H20 (start) on Year/day   16/298    532.40
!     Soil H20 (final) on Year/day   17/219    527.32
!     Effective Irrigation                       0.00
!     Precipitation                            514.30
!     Water added with new mulch                 0.00
!     Net lateral flow                           0.00
!     Drainage                                 112.50
!     Tiledrain flow                             0.00
!     Runoff                                     7.09
!     Mulch evaporation                          0.00
!     Soil Evaporation                         286.50
!     Transpiration                            105.88
!     Total evapotranspiration                 392.38
!     Total potential evapotranspiration       684.18

!     Initial mulch water content                0.00
!     Final mulch water content                  0.00

!     Final Balance                             7.403

