*WARNING DETAIL FILE

******************************************************************************

*DSSAT Cropping System Model Ver. 4.8.5.000 -release  MAR 01, 2026 09:34:40

*RUN   1        : 1                                  TUDU1701    1

 EXPERIMENT     : TUDU1701 WH
 DATA PATH      :
 TREATMENT  1   : 1
  

 IPEXP   YEAR DOY =    0   0
 Photosynthesis method (PHOTO in FILEX) has been changed                       
 from "L" to "C" for compatibility with crop model, WHAPS.                     

 TILLAGE  YEAR DOY =   16 298
 User-specified tillage depth greater than that specified by tillage implement.
 Tillage operation date:   16 298                                              
 TI024: Roller packer                                                          
 User-specified depth = 10.0 cm                                                
 Implement depth of      4.0 cm will be used.                                  

 SOLORG  YEAR DOY =   16 298
 The initialized C:N ratio of the soil organic                                 
 matter (humus) in layer  14 is unlikely:      9.5                             
 A C:N ratio of 10.0 will be used to calculate initial soil organic N.         
 Please check your SOIL.SOL file.                                              

 SOLORG  YEAR DOY =   16 298
 The initialized C:N ratio of the soil organic                                 
 matter (humus) in layer  15 is unlikely:      8.9                             
 A C:N ratio of 10.0 will be used to calculate initial soil organic N.         
 Please check your SOIL.SOL file.                                              

******************************************************************************

*DSSAT Cropping System Model Ver. 4.8.5.000 -release  MAR 01, 2026 09:34:40

*RUN   2        : 2                                  TUDU1701    2

 EXPERIMENT     : TUDU1701 WH
 DATA PATH      :
 TREATMENT  2   : 2
  

 IPEXP   YEAR DOY =    0   0
 Photosynthesis method (PHOTO in FILEX) has been changed                       
 from "L" to "C" for compatibility with crop model, WHAPS.                     

 TILLAGE  YEAR DOY =   16 298
 User-specified tillage depth greater than that specified by tillage implement.
 Tillage operation date:   16 298                                              
 TI024: Roller packer                                                          
 User-specified depth = 10.0 cm                                                
 Implement depth of      4.0 cm will be used.                                  

 SOLORG  YEAR DOY =   16 298
 The initialized C:N ratio of the soil organic                                 
 matter (humus) in layer  14 is unlikely:      9.5                             
 A C:N ratio of 10.0 will be used to calculate initial soil organic N.         
 Please check your SOIL.SOL file.                                              

 SOLORG  YEAR DOY =   16 298
 The initialized C:N ratio of the soil organic                                 
 matter (humus) in layer  15 is unlikely:      8.9                             
 A C:N ratio of 10.0 will be used to calculate initial soil organic N.         
 Please check your SOIL.SOL file.                                              

 NWGRNI  YEAR DOY =   17 206
 pnout bound check >navl error                                                 

******************************************************************************

*DSSAT Cropping System Model Ver. 4.8.5.000 -release  MAR 01, 2026 09:34:40

*RUN   3        : 3                                  TUDU1701    3

 EXPERIMENT     : TUDU1701 WH
 DATA PATH      :
 TREATMENT  3   : 3
  

 IPEXP   YEAR DOY =    0   0
 Photosynthesis method (PHOTO in FILEX) has been changed                       
 from "L" to "C" for compatibility with crop model, WHAPS.                     

 TILLAGE  YEAR DOY =   16 298
 User-specified tillage depth greater than that specified by tillage implement.
 Tillage operation date:   16 298                                              
 TI024: Roller packer                                                          
 User-specified depth = 10.0 cm                                                
 Implement depth of      4.0 cm will be used.                                  

 SOLORG  YEAR DOY =   16 298
 The initialized C:N ratio of the soil organic                                 
 matter (humus) in layer  14 is unlikely:      9.5                             
 A C:N ratio of 10.0 will be used to calculate initial soil organic N.         
 Please check your SOIL.SOL file.                                              

 SOLORG  YEAR DOY =   16 298
 The initialized C:N ratio of the soil organic                                 
 matter (humus) in layer  15 is unlikely:      8.9                             
 A C:N ratio of 10.0 will be used to calculate initial soil organic N.         
 Please check your SOIL.SOL file.                                              

 FPLACE  YEAR DOY =   17  35
 Invalid fertilizer data in experiment file.                                   
 Fertilizer type: FE900 Generic fertilizer                                     
 Amount N specified:     80.0 kg/ha                                            
 Check DETAIL.CDE file for valid fertilizer types.                             
 No N applied on this date.                                                    

******************************************************************************

*DSSAT Cropping System Model Ver. 4.8.5.000 -release  MAR 01, 2026 09:34:41

*RUN   4        : 4                                  TUDU1701    4

 EXPERIMENT     : TUDU1701 WH
 DATA PATH      :
 TREATMENT  4   : 4
  

 IPEXP   YEAR DOY =    0   0
 Photosynthesis method (PHOTO in FILEX) has been changed                       
 from "L" to "C" for compatibility with crop model, WHAPS.                     

 TILLAGE  YEAR DOY =   16 298
 User-specified tillage depth greater than that specified by tillage implement.
 Tillage operation date:   16 298                                              
 TI024: Roller packer                                                          
 User-specified depth = 10.0 cm                                                
 Implement depth of      4.0 cm will be used.                                  

 SOLORG  YEAR DOY =   16 298
 The initialized C:N ratio of the soil organic                                 
 matter (humus) in layer  14 is unlikely:      9.5                             
 A C:N ratio of 10.0 will be used to calculate initial soil organic N.         
 Please check your SOIL.SOL file.                                              

 SOLORG  YEAR DOY =   16 298
 The initialized C:N ratio of the soil organic                                 
 matter (humus) in layer  15 is unlikely:      8.9                             
 A C:N ratio of 10.0 will be used to calculate initial soil organic N.         
 Please check your SOIL.SOL file.                                              

******************************************************************************

*DSSAT Cropping System Model Ver. 4.8.5.000 -release  MAR 01, 2026 09:34:41

*RUN   5        : 5                                  TUDU1701    5

 EXPERIMENT     : TUDU1701 WH
 DATA PATH      :
 TREATMENT  5   : 5
  

 IPEXP   YEAR DOY =    0   0
 Photosynthesis method (PHOTO in FILEX) has been changed                       
 from "L" to "C" for compatibility with crop model, WHAPS.                     

 TILLAGE  YEAR DOY =   16 298
 User-specified tillage depth greater than that specified by tillage implement.
 Tillage operation date:   16 298                                              
 TI024: Roller packer                                                          
 User-specified depth = 10.0 cm                                                
 Implement depth of      4.0 cm will be used.                                  

 SOLORG  YEAR DOY =   16 298
 The initialized C:N ratio of the soil organic                                 
 matter (humus) in layer  14 is unlikely:      9.5                             
 A C:N ratio of 10.0 will be used to calculate initial soil organic N.         
 Please check your SOIL.SOL file.                                              

 SOLORG  YEAR DOY =   16 298
 The initialized C:N ratio of the soil organic                                 
 matter (humus) in layer  15 is unlikely:      8.9                             
 A C:N ratio of 10.0 will be used to calculate initial soil organic N.         
 Please check your SOIL.SOL file.                                              

 NWGRNI  YEAR DOY =   17 186
 pnout bound check >navl error                                                 

 NWGRNI  YEAR DOY =   17 190
 pnout bound check >navl error                                                 

 NWGRNI  YEAR DOY =   17 206
 pnout bound check >navl error                                                 

 NWGRNI  YEAR DOY =   17 209
 pnout bound check >navl error                                                 

******************************************************************************

*DSSAT Cropping System Model Ver. 4.8.5.000 -release  MAR 01, 2026 09:34:41

*RUN   6        : 6                                  TUDU1701    6

 EXPERIMENT     : TUDU1701 WH
 DATA PATH      :
 TREATMENT  6   : 6
  

 IPEXP   YEAR DOY =    0   0
 Photosynthesis method (PHOTO in FILEX) has been changed                       
 from "L" to "C" for compatibility with crop model, WHAPS.                     

 TILLAGE  YEAR DOY =   16 298
 User-specified tillage depth greater than that specified by tillage implement.
 Tillage operation date:   16 298                                              
 TI024: Roller packer                                                          
 User-specified depth = 10.0 cm                                                
 Implement depth of      4.0 cm will be used.                                  

 SOLORG  YEAR DOY =   16 298
 The initialized C:N ratio of the soil organic                                 
 matter (humus) in layer  14 is unlikely:      9.5                             
 A C:N ratio of 10.0 will be used to calculate initial soil organic N.         
 Please check your SOIL.SOL file.                                              

 SOLORG  YEAR DOY =   16 298
 The initialized C:N ratio of the soil organic                                 
 matter (humus) in layer  15 is unlikely:      8.9                             
 A C:N ratio of 10.0 will be used to calculate initial soil organic N.         
 Please check your SOIL.SOL file.                                              

 NWGRNI  YEAR DOY =   17 205
 pnout bound check >navl error                                                 

******************************************************************************

*DSSAT Cropping System Model Ver. 4.8.5.000 -release  MAR 01, 2026 09:34:41

*RUN   7        : 7                                  TUDU1701    7

 EXPERIMENT     : TUDU1701 WH
 DATA PATH      :
 TREATMENT  7   : 7
  

 IPEXP   YEAR DOY =    0   0
 Photosynthesis method (PHOTO in FILEX) has been changed                       
 from "L" to "C" for compatibility with crop model, WHAPS.                     

 TILLAGE  YEAR DOY =   16 298
 User-specified tillage depth greater than that specified by tillage implement.
 Tillage operation date:   16 298                                              
 TI024: Roller packer                                                          
 User-specified depth = 10.0 cm                                                
 Implement depth of      4.0 cm will be used.                                  

 SOLORG  YEAR DOY =   16 298
 The initialized C:N ratio of the soil organic                                 
 matter (humus) in layer  14 is unlikely:      9.5                             
 A C:N ratio of 10.0 will be used to calculate initial soil organic N.         
 Please check your SOIL.SOL file.                                              

 SOLORG  YEAR DOY =   16 298
 The initialized C:N ratio of the soil organic                                 
 matter (humus) in layer  15 is unlikely:      8.9                             
 A C:N ratio of 10.0 will be used to calculate initial soil organic N.         
 Please check your SOIL.SOL file.                                              

 NWGRNI  YEAR DOY =   17 203
 pnout bound check >navl error                                                 

 NWGRNI  YEAR DOY =   17 207
 pnout bound check >navl error                                                 

******************************************************************************

*DSSAT Cropping System Model Ver. 4.8.5.000 -release  MAR 01, 2026 09:34:41

*RUN   8        : 8                                  TUDU1701    8

 EXPERIMENT     : TUDU1701 WH
 DATA PATH      :
 TREATMENT  8   : 8
  

 IPEXP   YEAR DOY =    0   0
 Photosynthesis method (PHOTO in FILEX) has been changed                       
 from "L" to "C" for compatibility with crop model, WHAPS.                     

 TILLAGE  YEAR DOY =   16 298
 User-specified tillage depth greater than that specified by tillage implement.
 Tillage operation date:   16 298                                              
 TI024: Roller packer                                                          
 User-specified depth = 10.0 cm                                                
 Implement depth of      4.0 cm will be used.                                  

 SOLORG  YEAR DOY =   16 298
 The initialized C:N ratio of the soil organic                                 
 matter (humus) in layer  14 is unlikely:      9.5                             
 A C:N ratio of 10.0 will be used to calculate initial soil organic N.         
 Please check your SOIL.SOL file.                                              

 SOLORG  YEAR DOY =   16 298
 The initialized C:N ratio of the soil organic                                 
 matter (humus) in layer  15 is unlikely:      8.9                             
 A C:N ratio of 10.0 will be used to calculate initial soil organic N.         
 Please check your SOIL.SOL file.                                              

 NWGRNI  YEAR DOY =   17 204
 pnout bound check >navl error                                                 

 NWGRNI  YEAR DOY =   17 206
 pnout bound check >navl error                                                 

******************************************************************************

*DSSAT Cropping System Model Ver. 4.8.5.000 -release  MAR 01, 2026 09:34:42

*RUN   9        : 9                                  TUDU1701    9

 EXPERIMENT     : TUDU1701 WH
 DATA PATH      :
 TREATMENT  9   : 9
  

 IPEXP   YEAR DOY =    0   0
 Photosynthesis method (PHOTO in FILEX) has been changed                       
 from "L" to "C" for compatibility with crop model, WHAPS.                     

 TILLAGE  YEAR DOY =   16 298
 User-specified tillage depth greater than that specified by tillage implement.
 Tillage operation date:   16 298                                              
 TI024: Roller packer                                                          
 User-specified depth = 10.0 cm                                                
 Implement depth of      4.0 cm will be used.                                  

 SOLORG  YEAR DOY =   16 298
 The initialized C:N ratio of the soil organic                                 
 matter (humus) in layer  14 is unlikely:      9.5                             
 A C:N ratio of 10.0 will be used to calculate initial soil organic N.         
 Please check your SOIL.SOL file.                                              

 SOLORG  YEAR DOY =   16 298
 The initialized C:N ratio of the soil organic                                 
 matter (humus) in layer  15 is unlikely:      8.9                             
 A C:N ratio of 10.0 will be used to calculate initial soil organic N.         
 Please check your SOIL.SOL file.                                              

 NWGRNI  YEAR DOY =   17 189
 pnout bound check >navl error                                                 

 NWGRNI  YEAR DOY =   17 204
 pnout bound check >navl error                                                 

 NWGRNI  YEAR DOY =   17 205
 pnout bound check >navl error                                                 

 NWGRNI  YEAR DOY =   17 206
 pnout bound check >navl error                                                 

 NWGRNI  YEAR DOY =   17 208
 pnout bound check >navl error                                                 

******************************************************************************

*DSSAT Cropping System Model Ver. 4.8.5.000 -release  MAR 01, 2026 09:34:42

*RUN  10        : 10                                 TUDU1701   10

 EXPERIMENT     : TUDU1701 WH
 DATA PATH      :
 TREATMENT 10   : 10
  

 IPEXP   YEAR DOY =    0   0
 Photosynthesis method (PHOTO in FILEX) has been changed                       
 from "L" to "C" for compatibility with crop model, WHAPS.                     

 TILLAGE  YEAR DOY =   16 298
 User-specified tillage depth greater than that specified by tillage implement.
 Tillage operation date:   16 298                                              
 TI024: Roller packer                                                          
 User-specified depth = 10.0 cm                                                
 Implement depth of      4.0 cm will be used.                                  

 SOLORG  YEAR DOY =   16 298
 The initialized C:N ratio of the soil organic                                 
 matter (humus) in layer  14 is unlikely:      9.5                             
 A C:N ratio of 10.0 will be used to calculate initial soil organic N.         
 Please check your SOIL.SOL file.                                              

 SOLORG  YEAR DOY =   16 298
 The initialized C:N ratio of the soil organic                                 
 matter (humus) in layer  15 is unlikely:      8.9                             
 A C:N ratio of 10.0 will be used to calculate initial soil organic N.         
 Please check your SOIL.SOL file.                                              

 FPLACE  YEAR DOY =   17  35
 Invalid fertilizer data in experiment file.                                   
 Fertilizer type: FE900 Generic fertilizer                                     
 Amount N specified:    120.0 kg/ha                                            
 Check DETAIL.CDE file for valid fertilizer types.                             
 No N applied on this date.                                                    

 NWGRNI  YEAR DOY =   17 176
 pnout bound check >navl error                                                 

******************************************************************************

*DSSAT Cropping System Model Ver. 4.8.5.000 -release  MAR 01, 2026 09:34:43

*RUN  11        : 11                                 TUDU1701   11

 EXPERIMENT     : TUDU1701 WH
 DATA PATH      :
 TREATMENT 11   : 11
  

 IPEXP   YEAR DOY =    0   0
 Photosynthesis method (PHOTO in FILEX) has been changed                       
 from "L" to "C" for compatibility with crop model, WHAPS.                     

 TILLAGE  YEAR DOY =   16 298
 User-specified tillage depth greater than that specified by tillage implement.
 Tillage operation date:   16 298                                              
 TI024: Roller packer                                                          
 User-specified depth = 10.0 cm                                                
 Implement depth of      4.0 cm will be used.                                  

 SOLORG  YEAR DOY =   16 298
 The initialized C:N ratio of the soil organic                                 
 matter (humus) in layer  14 is unlikely:      9.5                             
 A C:N ratio of 10.0 will be used to calculate initial soil organic N.         
 Please check your SOIL.SOL file.                                              

 SOLORG  YEAR DOY =   16 298
 The initialized C:N ratio of the soil organic                                 
 matter (humus) in layer  15 is unlikely:      8.9                             
 A C:N ratio of 10.0 will be used to calculate initial soil organic N.         
 Please check your SOIL.SOL file.                                              

******************************************************************************

*DSSAT Cropping System Model Ver. 4.8.5.000 -release  MAR 01, 2026 09:34:43

*RUN  12        : 12                                 TUDU1701   12

 EXPERIMENT     : TUDU1701 WH
 DATA PATH      :
 TREATMENT 12   : 12
  

 IPEXP   YEAR DOY =    0   0
 Photosynthesis method (PHOTO in FILEX) has been changed                       
 from "L" to "C" for compatibility with crop model, WHAPS.                     

 TILLAGE  YEAR DOY =   16 298
 User-specified tillage depth greater than that specified by tillage implement.
 Tillage operation date:   16 298                                              
 TI024: Roller packer                                                          
 User-specified depth = 10.0 cm                                                
 Implement depth of      4.0 cm will be used.                                  

 SOLORG  YEAR DOY =   16 298
 The initialized C:N ratio of the soil organic                                 
 matter (humus) in layer  14 is unlikely:      9.5                             
 A C:N ratio of 10.0 will be used to calculate initial soil organic N.         
 Please check your SOIL.SOL file.                                              

 SOLORG  YEAR DOY =   16 298
 The initialized C:N ratio of the soil organic                                 
 matter (humus) in layer  15 is unlikely:      8.9                             
 A C:N ratio of 10.0 will be used to calculate initial soil organic N.         
 Please check your SOIL.SOL file.                                              

 NWGRNI  YEAR DOY =   17 205
 pnout bound check >navl error                                                 

 NWGRNI  YEAR DOY =   17 206
 pnout bound check >navl error                                                 

 NWGRNI  YEAR DOY =   17 207
 pnout bound check >navl error                                                 

******************************************************************************

*DSSAT Cropping System Model Ver. 4.8.5.000 -release  MAR 01, 2026 09:34:43

*RUN  13        : 13                                 TUDU1701   13

 EXPERIMENT     : TUDU1701 WH
 DATA PATH      :
 TREATMENT 13   : 13
  

 IPEXP   YEAR DOY =    0   0
 Photosynthesis method (PHOTO in FILEX) has been changed                       
 from "L" to "C" for compatibility with crop model, WHAPS.                     

 TILLAGE  YEAR DOY =   16 298
 User-specified tillage depth greater than that specified by tillage implement.
 Tillage operation date:   16 298                                              
 TI024: Roller packer                                                          
 User-specified depth = 10.0 cm                                                
 Implement depth of      4.0 cm will be used.                                  

 SOLORG  YEAR DOY =   16 298
 The initialized C:N ratio of the soil organic                                 
 matter (humus) in layer  14 is unlikely:      9.5                             
 A C:N ratio of 10.0 will be used to calculate initial soil organic N.         
 Please check your SOIL.SOL file.                                              

 SOLORG  YEAR DOY =   16 298
 The initialized C:N ratio of the soil organic                                 
 matter (humus) in layer  15 is unlikely:      8.9                             
 A C:N ratio of 10.0 will be used to calculate initial soil organic N.         
 Please check your SOIL.SOL file.                                              

******************************************************************************

*DSSAT Cropping System Model Ver. 4.8.5.000 -release  MAR 01, 2026 09:34:44

*RUN  14        : 14                                 TUDU1701   14

 EXPERIMENT     : TUDU1701 WH
 DATA PATH      :
 TREATMENT 14   : 14
  

 IPEXP   YEAR DOY =    0   0
 Photosynthesis method (PHOTO in FILEX) has been changed                       
 from "L" to "C" for compatibility with crop model, WHAPS.                     

 TILLAGE  YEAR DOY =   16 298
 User-specified tillage depth greater than that specified by tillage implement.
 Tillage operation date:   16 298                                              
 TI024: Roller packer                                                          
 User-specified depth = 10.0 cm                                                
 Implement depth of      4.0 cm will be used.                                  

 SOLORG  YEAR DOY =   16 298
 The initialized C:N ratio of the soil organic                                 
 matter (humus) in layer  14 is unlikely:      9.5                             
 A C:N ratio of 10.0 will be used to calculate initial soil organic N.         
 Please check your SOIL.SOL file.                                              

 SOLORG  YEAR DOY =   16 298
 The initialized C:N ratio of the soil organic                                 
 matter (humus) in layer  15 is unlikely:      8.9                             
 A C:N ratio of 10.0 will be used to calculate initial soil organic N.         
 Please check your SOIL.SOL file.                                              

 NWGRNI  YEAR DOY =   17 206
 pnout bound check >navl error                                                 

******************************************************************************

*DSSAT Cropping System Model Ver. 4.8.5.000 -release  MAR 01, 2026 09:34:44

*RUN  15        : 15                                 TUDU1701   15

 EXPERIMENT     : TUDU1701 WH
 DATA PATH      :
 TREATMENT 15   : 15
  

 IPEXP   YEAR DOY =    0   0
 Photosynthesis method (PHOTO in FILEX) has been changed                       
 from "L" to "C" for compatibility with crop model, WHAPS.                     

 TILLAGE  YEAR DOY =   16 298
 User-specified tillage depth greater than that specified by tillage implement.
 Tillage operation date:   16 298                                              
 TI024: Roller packer                                                          
 User-specified depth = 10.0 cm                                                
 Implement depth of      4.0 cm will be used.                                  

 SOLORG  YEAR DOY =   16 298
 The initialized C:N ratio of the soil organic                                 
 matter (humus) in layer  14 is unlikely:      9.5                             
 A C:N ratio of 10.0 will be used to calculate initial soil organic N.         
 Please check your SOIL.SOL file.                                              

 SOLORG  YEAR DOY =   16 298
 The initialized C:N ratio of the soil organic                                 
 matter (humus) in layer  15 is unlikely:      8.9                             
 A C:N ratio of 10.0 will be used to calculate initial soil organic N.         
 Please check your SOIL.SOL file.                                              

 NWGRNI  YEAR DOY =   17 174
 pnout bound check >navl error                                                 
